version 2
run plain-0-20220717-14:06:44-18278
attr configname plain
attr datetime 20220717-14:06:44
attr experiment plain
attr inifile omnetpp.ini
attr iterationvars ""
attr iterationvarsf ""
attr measurement ""
attr network Scenario
attr processid 18278
attr repetition 0
attr replication #0
attr resultdir results
attr runnumber 0
attr seedset 0
param *.node[*].numApps 1
param *.node[*].app[0].typename "\"v2x_politecnico.veins_inet.VeinsInetSampleApplication\""
param *.node[*].app[0].interface "\"wlan0\""
param *.node[*].wlan[0].opMode "\"p\""
param *.node[*].wlan[0].radio.typename "\"Ieee80211DimensionalRadio\""
param *.node[*].wlan[0].radio.bandName "\"5.9 GHz\""
param *.node[*].wlan[0].radio.channelNumber 3
param *.node[*].wlan[0].radio.transmitter.power 20mW
param *.node[*].wlan[0].radio.bandwidth "10 MHz"
param *.node[*].wlan[*].radio.antenna.mobility.typename "\"AttachedMobility\""
param *.node[*].wlan[*].radio.antenna.mobility.mobilityModule "\"^.^.^.^.mobility\""
param *.node[*].wlan[*].radio.antenna.mobility.offsetX -2.5m
param *.node[*].wlan[*].radio.antenna.mobility.offsetZ 1.5m
param *.node[*].wlan[*].radio.antenna.mobility.constraintAreaMinX 0m
param *.node[*].wlan[*].radio.antenna.mobility.constraintAreaMaxX 0m
param *.node[*].wlan[*].radio.antenna.mobility.constraintAreaMinY 0m
param *.node[*].wlan[*].radio.antenna.mobility.constraintAreaMaxY 0m
param *.node[*].wlan[*].radio.antenna.mobility.constraintAreaMinZ 0m
param *.node[*].wlan[*].radio.antenna.mobility.constraintAreaMaxZ 0m
param *.node[*].ipv4.configurator.typename "\"HostAutoConfigurator\""
param *.node[*].ipv4.configurator.interfaces "\"wlan0\""
param *.node[*].ipv4.configurator.mcastGroups "\"224.0.0.1\""
param *.node[*].mobility.typename "\"VeinsInetMobility\""
param *.manager.updateInterval 0.1s
param *.manager.host "\"localhost\""
param *.manager.port 9999
param *.manager.autoShutdown true
param *.manager.launchConfig "xmldoc(\"politecnico.launchd.xml\")"
param *.manager.moduleType "\"v2x_politecnico.veins_inet.VeinsInetCar\""
param *.radioMedium.obstacleLoss.typename "\"IdealObstacleLoss\""

vector 0 Scenario.node[0].wlan[0].radio radioMode:vector ETV
attr interpolationmode sample-hold
attr source radioModeChanged
attr title "Radio mode, vector"
vector 1 Scenario.node[0].wlan[0].radio radioChannel:vector ETV
attr interpolationmode sample-hold
attr source radioChannelChanged
attr title "Radio channel, vector"
vector 2 Scenario.node[0].wlan[0].radio receptionState:vector ETV
attr interpolationmode sample-hold
attr source receptionStateChanged
attr title "Radio reception state, vector"
vector 3 Scenario.node[0].wlan[0].mac.dcf.recoveryProcedure contentionWindowChanged:vector ETV
attr interpolationmode sample-hold
attr title "contention window, vector"
vector 4 Scenario.node[1].wlan[0].radio radioMode:vector ETV
attr interpolationmode sample-hold
attr source radioModeChanged
attr title "Radio mode, vector"
vector 5 Scenario.node[1].wlan[0].radio radioChannel:vector ETV
attr interpolationmode sample-hold
attr source radioChannelChanged
attr title "Radio channel, vector"
vector 6 Scenario.node[1].wlan[0].radio receptionState:vector ETV
attr interpolationmode sample-hold
attr source receptionStateChanged
attr title "Radio reception state, vector"
vector 7 Scenario.node[1].wlan[0].mac.dcf.recoveryProcedure contentionWindowChanged:vector ETV
attr interpolationmode sample-hold
attr title "contention window, vector"
vector 8 Scenario.node[2].wlan[0].radio radioMode:vector ETV
attr interpolationmode sample-hold
attr source radioModeChanged
attr title "Radio mode, vector"
vector 9 Scenario.node[2].wlan[0].radio radioChannel:vector ETV
attr interpolationmode sample-hold
attr source radioChannelChanged
attr title "Radio channel, vector"
vector 10 Scenario.node[2].wlan[0].radio receptionState:vector ETV
attr interpolationmode sample-hold
attr source receptionStateChanged
attr title "Radio reception state, vector"
vector 11 Scenario.node[2].wlan[0].mac.dcf.recoveryProcedure contentionWindowChanged:vector ETV
attr interpolationmode sample-hold
attr title "contention window, vector"
vector 12 Scenario.node[3].wlan[0].radio radioMode:vector ETV
attr interpolationmode sample-hold
attr source radioModeChanged
attr title "Radio mode, vector"
vector 13 Scenario.node[3].wlan[0].radio radioChannel:vector ETV
attr interpolationmode sample-hold
attr source radioChannelChanged
attr title "Radio channel, vector"
vector 14 Scenario.node[3].wlan[0].radio receptionState:vector ETV
attr interpolationmode sample-hold
attr source receptionStateChanged
attr title "Radio reception state, vector"
vector 15 Scenario.node[3].wlan[0].mac.dcf.recoveryProcedure contentionWindowChanged:vector ETV
attr interpolationmode sample-hold
attr title "contention window, vector"
vector 16 Scenario.node[4].wlan[0].radio radioMode:vector ETV
attr interpolationmode sample-hold
attr source radioModeChanged
attr title "Radio mode, vector"
vector 17 Scenario.node[4].wlan[0].radio radioChannel:vector ETV
attr interpolationmode sample-hold
attr source radioChannelChanged
attr title "Radio channel, vector"
vector 18 Scenario.node[4].wlan[0].radio receptionState:vector ETV
attr interpolationmode sample-hold
attr source receptionStateChanged
attr title "Radio reception state, vector"
vector 19 Scenario.node[4].wlan[0].mac.dcf.recoveryProcedure contentionWindowChanged:vector ETV
attr interpolationmode sample-hold
attr title "contention window, vector"
vector 20 Scenario.node[0].app[0] packetSent:vector(packetBytes) ETV
attr interpolationmode none
attr source packetSent
attr title "packets sent, vector(packetBytes)"
vector 21 Scenario.node[0].udp packetSent:vector(packetBytes) ETV
attr interpolationmode none
attr source packetSent
attr title "packets sent, vector(packetBytes)"
vector 22 Scenario.node[0].lo[0].lo rcvdPkFromHl:vector(packetBytes) ETV
attr interpolationmode none
attr source packetReceivedFromUpper
attr title "packets received from higher layer, vector(packetBytes)"
vector 23 Scenario.node[0].lo[0].lo passedUpPk:vector(packetBytes) ETV
attr interpolationmode none
attr source packetSentToUpper
attr title "packets passed to higher layer, vector(packetBytes)"
vector 24 Scenario.node[0].wlan[0].mac packetReceivedFromUpper:vector(packetBytes) ETV
attr interpolationmode none
attr title "packets received from upper layer, vector(packetBytes)"
vector 25 Scenario.node[0].wlan[0].mac.dcf.channelAccess.pendingQueue packetPushed:vector(packetBytes) ETV
attr interpolationmode none
attr title "packet pushed, vector(packetBytes)"
vector 26 Scenario.node[0].wlan[0].mac.dcf.channelAccess.pendingQueue queueLength:vector ETV
attr interpolationmode sample-hold
attr source "count(packetPushed) - count(packetPopped) - count(packetRemoved) - count(packetDropped)"
attr title "queue length, vector"
vector 27 Scenario.node[0].wlan[0].mac.dcf.channelAccess.contention backoffPeriodGenerated:vector ETV
attr interpolationmode none
attr title "backoff periods, vector"
vector 28 Scenario.node[0].wlan[0].mac.dcf.channelAccess.contention backoffActive:vector ETV
attr interpolationmode sample-hold
attr source count(backoffStarted)-count(backoffStopped)
attr title "backoff active, vector"
vector 29 Scenario.node[0].udp packetReceived:vector(packetBytes) ETV
attr interpolationmode none
attr source packetReceived
attr title "packets received, vector(packetBytes)"
vector 30 Scenario.node[0].udp passedUpPk:vector(count) ETV
attr interpolationmode none
attr source packetSentToUpper
attr title "packets passed up, vector(count)"
vector 31 Scenario.node[0].app[0] packetReceived:vector(packetBytes) ETV
attr interpolationmode none
attr source packetReceived
attr title "packets received, vector(packetBytes)"
vector 32 Scenario.node[0].app[0] throughput:vector ETV
attr source throughput(packetReceived)
attr title "throughput, vector"
attr unit bps
vector 33 Scenario.node[0].wlan[0].mac.dcf.channelAccess.pendingQueue packetPopped:vector(packetBytes) ETV
attr interpolationmode none
attr title "packet popped, vector(packetBytes)"
vector 34 Scenario.node[0].wlan[0].mac.dcf.channelAccess.pendingQueue queueingTime:vector ETV
attr interpolationmode none
attr source queueingTime(packetPopped)
attr title "queueing times, vector"
attr unit s
vector 35 Scenario.node[0].wlan[0].mac.dcf.channelAccess.inProgressFrames queueLength:vector ETV
attr interpolationmode sample-hold
attr source "count(packetEnqueued) - count(packetDequeued)"
attr title "queue length, vector"
vector 36 Scenario.node[0].wlan[0].mac.dcf datarateSelected:vector ETV
attr interpolationmode none
attr title "datarates selected, vector"
vector 37 Scenario.node[0].wlan[0].mac packetSentToLower:vector(packetBytes) ETV
attr interpolationmode none
attr title "packets sent to lower layer, vector(packetBytes)"
vector 38 Scenario.node[0].wlan[0].mac.dcf frameSequenceActive:vector ETV
attr interpolationmode sample-hold
attr source count(frameSequenceStarted)-count(frameSequenceFinished)
attr title "frame sequence active, vector"
vector 39 Scenario.node[0].wlan[0].radio transmissionState:vector ETV
attr interpolationmode sample-hold
attr source transmissionStateChanged
attr title "Radio transmission state, vector"
vector 40 Scenario.node[0].wlan[0].mac.dcf packetSentToPeer:vector(packetBytes) ETV
attr interpolationmode none
attr title "packets sent, vector(packetBytes)"
vector 41 Scenario.node[0].wlan[0].mac.dcf packetSentToPeerMulticast:vector(packetBytes) ETV
attr interpolationmode none
attr source ieee80211Multicast(packetSentToPeer)
attr title "packets sent: multicast, vector(packetBytes)"
vector 42 Scenario.node[0].wlan[0].mac.dcf packetSentToPeerWithoutRetry:vector(packetBytes) ETV
attr interpolationmode none
attr source ieee80211NotRetry(packetSentToPeer)
attr title "packets sent: without retry, vector(packetBytes)"
vector 43 Scenario.node[0].wlan[0].mac.dcf.channelAccess.inProgressFrames queueingTime:vector ETV
attr interpolationmode none
attr source queueingTime(packetDequeued)
attr title "queueing times, vector"
vector 44 Scenario.node[1].wlan[0].mac packetReceivedFromLower:vector(packetBytes) ETV
attr interpolationmode none
attr title "packets received from lower layer, vector(packetBytes)"
vector 45 Scenario.node[1].wlan[0].mac.dcf packetReceivedFromPeer:vector(packetBytes) ETV
attr interpolationmode none
attr title "packets received, vector(packetBytes)"
vector 46 Scenario.node[1].wlan[0].mac.dcf packetReceivedFromPeerMulticast:vector(packetBytes) ETV
attr interpolationmode none
attr source ieee80211Multicast(packetReceivedFromPeer)
attr title "packets received: multicast, vector(packetBytes)"
vector 47 Scenario.node[1].wlan[0].mac.dcf packetReceivedFromPeerWithoutRetry:vector(packetBytes) ETV
attr interpolationmode none
attr source ieee80211NotRetry(packetReceivedFromPeer)
attr title "packets received: without retry, vector(packetBytes)"
vector 48 Scenario.node[1].wlan[0].mac packetSentToUpper:vector(packetBytes) ETV
attr interpolationmode none
attr title "packets sent to upper layer, vector(packetBytes)"
vector 49 Scenario.node[1].udp packetReceived:vector(packetBytes) ETV
attr interpolationmode none
attr source packetReceived
attr title "packets received, vector(packetBytes)"
vector 50 Scenario.node[1].udp passedUpPk:vector(count) ETV
attr interpolationmode none
attr source packetSentToUpper
attr title "packets passed up, vector(count)"
vector 51 Scenario.node[1].app[0] packetReceived:vector(packetBytes) ETV
attr interpolationmode none
attr source packetReceived
attr title "packets received, vector(packetBytes)"
vector 52 Scenario.node[1].app[0] throughput:vector ETV
attr source throughput(packetReceived)
attr title "throughput, vector"
attr unit bps
vector 53 Scenario.node[1].app[0] packetSent:vector(packetBytes) ETV
attr interpolationmode none
attr source packetSent
attr title "packets sent, vector(packetBytes)"
vector 54 Scenario.node[1].udp packetSent:vector(packetBytes) ETV
attr interpolationmode none
attr source packetSent
attr title "packets sent, vector(packetBytes)"
vector 55 Scenario.node[1].lo[0].lo rcvdPkFromHl:vector(packetBytes) ETV
attr interpolationmode none
attr source packetReceivedFromUpper
attr title "packets received from higher layer, vector(packetBytes)"
vector 56 Scenario.node[1].lo[0].lo passedUpPk:vector(packetBytes) ETV
attr interpolationmode none
attr source packetSentToUpper
attr title "packets passed to higher layer, vector(packetBytes)"
vector 57 Scenario.node[1].wlan[0].mac packetReceivedFromUpper:vector(packetBytes) ETV
attr interpolationmode none
attr title "packets received from upper layer, vector(packetBytes)"
vector 58 Scenario.node[1].wlan[0].mac.dcf.channelAccess.pendingQueue packetPushed:vector(packetBytes) ETV
attr interpolationmode none
attr title "packet pushed, vector(packetBytes)"
vector 59 Scenario.node[1].wlan[0].mac.dcf.channelAccess.pendingQueue queueLength:vector ETV
attr interpolationmode sample-hold
attr source "count(packetPushed) - count(packetPopped) - count(packetRemoved) - count(packetDropped)"
attr title "queue length, vector"
vector 60 Scenario.node[1].wlan[0].mac.dcf.channelAccess.contention backoffPeriodGenerated:vector ETV
attr interpolationmode none
attr title "backoff periods, vector"
vector 61 Scenario.node[1].wlan[0].mac.dcf.channelAccess.contention backoffActive:vector ETV
attr interpolationmode sample-hold
attr source count(backoffStarted)-count(backoffStopped)
attr title "backoff active, vector"
vector 62 Scenario.node[2].wlan[0].mac packetReceivedFromLower:vector(packetBytes) ETV
attr interpolationmode none
attr title "packets received from lower layer, vector(packetBytes)"
vector 63 Scenario.node[2].wlan[0].mac.dcf packetReceivedFromPeer:vector(packetBytes) ETV
attr interpolationmode none
attr title "packets received, vector(packetBytes)"
vector 64 Scenario.node[2].wlan[0].mac.dcf packetReceivedFromPeerMulticast:vector(packetBytes) ETV
attr interpolationmode none
attr source ieee80211Multicast(packetReceivedFromPeer)
attr title "packets received: multicast, vector(packetBytes)"
vector 65 Scenario.node[2].wlan[0].mac.dcf packetReceivedFromPeerWithoutRetry:vector(packetBytes) ETV
attr interpolationmode none
attr source ieee80211NotRetry(packetReceivedFromPeer)
attr title "packets received: without retry, vector(packetBytes)"
vector 66 Scenario.node[2].wlan[0].mac packetSentToUpper:vector(packetBytes) ETV
attr interpolationmode none
attr title "packets sent to upper layer, vector(packetBytes)"
vector 67 Scenario.node[2].udp packetReceived:vector(packetBytes) ETV
attr interpolationmode none
attr source packetReceived
attr title "packets received, vector(packetBytes)"
vector 68 Scenario.node[2].udp passedUpPk:vector(count) ETV
attr interpolationmode none
attr source packetSentToUpper
attr title "packets passed up, vector(count)"
vector 69 Scenario.node[2].app[0] packetReceived:vector(packetBytes) ETV
attr interpolationmode none
attr source packetReceived
attr title "packets received, vector(packetBytes)"
vector 70 Scenario.node[2].app[0] throughput:vector ETV
attr source throughput(packetReceived)
attr title "throughput, vector"
attr unit bps
vector 71 Scenario.node[2].app[0] packetSent:vector(packetBytes) ETV
attr interpolationmode none
attr source packetSent
attr title "packets sent, vector(packetBytes)"
vector 72 Scenario.node[2].udp packetSent:vector(packetBytes) ETV
attr interpolationmode none
attr source packetSent
attr title "packets sent, vector(packetBytes)"
vector 73 Scenario.node[2].lo[0].lo rcvdPkFromHl:vector(packetBytes) ETV
attr interpolationmode none
attr source packetReceivedFromUpper
attr title "packets received from higher layer, vector(packetBytes)"
vector 74 Scenario.node[2].lo[0].lo passedUpPk:vector(packetBytes) ETV
attr interpolationmode none
attr source packetSentToUpper
attr title "packets passed to higher layer, vector(packetBytes)"
vector 75 Scenario.node[2].wlan[0].mac packetReceivedFromUpper:vector(packetBytes) ETV
attr interpolationmode none
attr title "packets received from upper layer, vector(packetBytes)"
vector 76 Scenario.node[2].wlan[0].mac.dcf.channelAccess.pendingQueue packetPushed:vector(packetBytes) ETV
attr interpolationmode none
attr title "packet pushed, vector(packetBytes)"
vector 77 Scenario.node[2].wlan[0].mac.dcf.channelAccess.pendingQueue queueLength:vector ETV
attr interpolationmode sample-hold
attr source "count(packetPushed) - count(packetPopped) - count(packetRemoved) - count(packetDropped)"
attr title "queue length, vector"
vector 78 Scenario.node[2].wlan[0].mac.dcf.channelAccess.contention backoffPeriodGenerated:vector ETV
attr interpolationmode none
attr title "backoff periods, vector"
vector 79 Scenario.node[2].wlan[0].mac.dcf.channelAccess.contention backoffActive:vector ETV
attr interpolationmode sample-hold
attr source count(backoffStarted)-count(backoffStopped)
attr title "backoff active, vector"
vector 80 Scenario.node[3].wlan[0].mac packetReceivedFromLower:vector(packetBytes) ETV
attr interpolationmode none
attr title "packets received from lower layer, vector(packetBytes)"
vector 81 Scenario.node[3].wlan[0].mac.dcf packetReceivedFromPeer:vector(packetBytes) ETV
attr interpolationmode none
attr title "packets received, vector(packetBytes)"
vector 82 Scenario.node[3].wlan[0].mac.dcf packetReceivedFromPeerMulticast:vector(packetBytes) ETV
attr interpolationmode none
attr source ieee80211Multicast(packetReceivedFromPeer)
attr title "packets received: multicast, vector(packetBytes)"
vector 83 Scenario.node[3].wlan[0].mac.dcf packetReceivedFromPeerWithoutRetry:vector(packetBytes) ETV
attr interpolationmode none
attr source ieee80211NotRetry(packetReceivedFromPeer)
attr title "packets received: without retry, vector(packetBytes)"
vector 84 Scenario.node[3].wlan[0].mac packetSentToUpper:vector(packetBytes) ETV
attr interpolationmode none
attr title "packets sent to upper layer, vector(packetBytes)"
vector 85 Scenario.node[3].udp packetReceived:vector(packetBytes) ETV
attr interpolationmode none
attr source packetReceived
attr title "packets received, vector(packetBytes)"
vector 86 Scenario.node[3].udp passedUpPk:vector(count) ETV
attr interpolationmode none
attr source packetSentToUpper
attr title "packets passed up, vector(count)"
vector 87 Scenario.node[3].app[0] packetReceived:vector(packetBytes) ETV
attr interpolationmode none
attr source packetReceived
attr title "packets received, vector(packetBytes)"
vector 88 Scenario.node[3].app[0] throughput:vector ETV
attr source throughput(packetReceived)
attr title "throughput, vector"
attr unit bps
vector 89 Scenario.node[3].app[0] packetSent:vector(packetBytes) ETV
attr interpolationmode none
attr source packetSent
attr title "packets sent, vector(packetBytes)"
vector 90 Scenario.node[3].udp packetSent:vector(packetBytes) ETV
attr interpolationmode none
attr source packetSent
attr title "packets sent, vector(packetBytes)"
vector 91 Scenario.node[3].lo[0].lo rcvdPkFromHl:vector(packetBytes) ETV
attr interpolationmode none
attr source packetReceivedFromUpper
attr title "packets received from higher layer, vector(packetBytes)"
vector 92 Scenario.node[3].lo[0].lo passedUpPk:vector(packetBytes) ETV
attr interpolationmode none
attr source packetSentToUpper
attr title "packets passed to higher layer, vector(packetBytes)"
vector 93 Scenario.node[3].wlan[0].mac packetReceivedFromUpper:vector(packetBytes) ETV
attr interpolationmode none
attr title "packets received from upper layer, vector(packetBytes)"
vector 94 Scenario.node[3].wlan[0].mac.dcf.channelAccess.pendingQueue packetPushed:vector(packetBytes) ETV
attr interpolationmode none
attr title "packet pushed, vector(packetBytes)"
vector 95 Scenario.node[3].wlan[0].mac.dcf.channelAccess.pendingQueue queueLength:vector ETV
attr interpolationmode sample-hold
attr source "count(packetPushed) - count(packetPopped) - count(packetRemoved) - count(packetDropped)"
attr title "queue length, vector"
vector 96 Scenario.node[3].wlan[0].mac.dcf.channelAccess.contention backoffPeriodGenerated:vector ETV
attr interpolationmode none
attr title "backoff periods, vector"
vector 97 Scenario.node[3].wlan[0].mac.dcf.channelAccess.contention backoffActive:vector ETV
attr interpolationmode sample-hold
attr source count(backoffStarted)-count(backoffStopped)
attr title "backoff active, vector"
vector 98 Scenario.node[4].wlan[0].mac packetReceivedFromLower:vector(packetBytes) ETV
attr interpolationmode none
attr title "packets received from lower layer, vector(packetBytes)"
vector 99 Scenario.node[4].wlan[0].mac.dcf packetReceivedFromPeer:vector(packetBytes) ETV
attr interpolationmode none
attr title "packets received, vector(packetBytes)"
vector 100 Scenario.node[4].wlan[0].mac.dcf packetReceivedFromPeerMulticast:vector(packetBytes) ETV
attr interpolationmode none
attr source ieee80211Multicast(packetReceivedFromPeer)
attr title "packets received: multicast, vector(packetBytes)"
vector 101 Scenario.node[4].wlan[0].mac.dcf packetReceivedFromPeerWithoutRetry:vector(packetBytes) ETV
attr interpolationmode none
attr source ieee80211NotRetry(packetReceivedFromPeer)
attr title "packets received: without retry, vector(packetBytes)"
vector 102 Scenario.node[4].wlan[0].mac packetSentToUpper:vector(packetBytes) ETV
attr interpolationmode none
attr title "packets sent to upper layer, vector(packetBytes)"
vector 103 Scenario.node[4].udp packetReceived:vector(packetBytes) ETV
attr interpolationmode none
attr source packetReceived
attr title "packets received, vector(packetBytes)"
vector 104 Scenario.node[4].udp passedUpPk:vector(count) ETV
attr interpolationmode none
attr source packetSentToUpper
attr title "packets passed up, vector(count)"
vector 105 Scenario.node[4].app[0] packetReceived:vector(packetBytes) ETV
attr interpolationmode none
attr source packetReceived
attr title "packets received, vector(packetBytes)"
vector 106 Scenario.node[4].app[0] throughput:vector ETV
attr source throughput(packetReceived)
attr title "throughput, vector"
attr unit bps
vector 107 Scenario.node[4].app[0] packetSent:vector(packetBytes) ETV
attr interpolationmode none
attr source packetSent
attr title "packets sent, vector(packetBytes)"
vector 108 Scenario.node[4].udp packetSent:vector(packetBytes) ETV
attr interpolationmode none
attr source packetSent
attr title "packets sent, vector(packetBytes)"
vector 109 Scenario.node[4].lo[0].lo rcvdPkFromHl:vector(packetBytes) ETV
attr interpolationmode none
attr source packetReceivedFromUpper
attr title "packets received from higher layer, vector(packetBytes)"
vector 110 Scenario.node[4].lo[0].lo passedUpPk:vector(packetBytes) ETV
attr interpolationmode none
attr source packetSentToUpper
attr title "packets passed to higher layer, vector(packetBytes)"
vector 111 Scenario.node[4].wlan[0].mac packetReceivedFromUpper:vector(packetBytes) ETV
attr interpolationmode none
attr title "packets received from upper layer, vector(packetBytes)"
vector 112 Scenario.node[4].wlan[0].mac.dcf.channelAccess.pendingQueue packetPushed:vector(packetBytes) ETV
attr interpolationmode none
attr title "packet pushed, vector(packetBytes)"
vector 113 Scenario.node[4].wlan[0].mac.dcf.channelAccess.pendingQueue queueLength:vector ETV
attr interpolationmode sample-hold
attr source "count(packetPushed) - count(packetPopped) - count(packetRemoved) - count(packetDropped)"
attr title "queue length, vector"
vector 114 Scenario.node[4].wlan[0].mac.dcf.channelAccess.contention backoffPeriodGenerated:vector ETV
attr interpolationmode none
attr title "backoff periods, vector"
vector 115 Scenario.node[4].wlan[0].mac.dcf.channelAccess.contention backoffActive:vector ETV
attr interpolationmode sample-hold
attr source count(backoffStarted)-count(backoffStopped)
attr title "backoff active, vector"
vector 116 Scenario.node[3].wlan[0].mac.dcf.channelAccess.pendingQueue packetPopped:vector(packetBytes) ETV
attr interpolationmode none
attr title "packet popped, vector(packetBytes)"
vector 117 Scenario.node[3].wlan[0].mac.dcf.channelAccess.pendingQueue queueingTime:vector ETV
attr interpolationmode none
attr source queueingTime(packetPopped)
attr title "queueing times, vector"
attr unit s
vector 118 Scenario.node[3].wlan[0].mac.dcf.channelAccess.inProgressFrames queueLength:vector ETV
attr interpolationmode sample-hold
attr source "count(packetEnqueued) - count(packetDequeued)"
attr title "queue length, vector"
vector 119 Scenario.node[3].wlan[0].mac.dcf datarateSelected:vector ETV
attr interpolationmode none
attr title "datarates selected, vector"
vector 120 Scenario.node[3].wlan[0].mac packetSentToLower:vector(packetBytes) ETV
attr interpolationmode none
attr title "packets sent to lower layer, vector(packetBytes)"
vector 121 Scenario.node[3].wlan[0].mac.dcf frameSequenceActive:vector ETV
attr interpolationmode sample-hold
attr source count(frameSequenceStarted)-count(frameSequenceFinished)
attr title "frame sequence active, vector"
vector 122 Scenario.node[3].wlan[0].radio transmissionState:vector ETV
attr interpolationmode sample-hold
attr source transmissionStateChanged
attr title "Radio transmission state, vector"
vector 123 Scenario.node[3].wlan[0].mac.dcf packetSentToPeer:vector(packetBytes) ETV
attr interpolationmode none
attr title "packets sent, vector(packetBytes)"
vector 124 Scenario.node[3].wlan[0].mac.dcf packetSentToPeerMulticast:vector(packetBytes) ETV
attr interpolationmode none
attr source ieee80211Multicast(packetSentToPeer)
attr title "packets sent: multicast, vector(packetBytes)"
vector 125 Scenario.node[3].wlan[0].mac.dcf packetSentToPeerWithoutRetry:vector(packetBytes) ETV
attr interpolationmode none
attr source ieee80211NotRetry(packetSentToPeer)
attr title "packets sent: without retry, vector(packetBytes)"
vector 126 Scenario.node[3].wlan[0].mac.dcf.channelAccess.inProgressFrames queueingTime:vector ETV
attr interpolationmode none
attr source queueingTime(packetDequeued)
attr title "queueing times, vector"
vector 127 Scenario.node[0].wlan[0].mac packetReceivedFromLower:vector(packetBytes) ETV
attr interpolationmode none
attr title "packets received from lower layer, vector(packetBytes)"
vector 128 Scenario.node[0].wlan[0].mac.dcf packetReceivedFromPeer:vector(packetBytes) ETV
attr interpolationmode none
attr title "packets received, vector(packetBytes)"
vector 129 Scenario.node[0].wlan[0].mac.dcf packetReceivedFromPeerMulticast:vector(packetBytes) ETV
attr interpolationmode none
attr source ieee80211Multicast(packetReceivedFromPeer)
attr title "packets received: multicast, vector(packetBytes)"
vector 130 Scenario.node[0].wlan[0].mac.dcf packetReceivedFromPeerWithoutRetry:vector(packetBytes) ETV
attr interpolationmode none
attr source ieee80211NotRetry(packetReceivedFromPeer)
attr title "packets received: without retry, vector(packetBytes)"
vector 131 Scenario.node[0].wlan[0].mac packetSentToUpper:vector(packetBytes) ETV
attr interpolationmode none
attr title "packets sent to upper layer, vector(packetBytes)"
vector 132 Scenario.node[4].wlan[0].mac.dcf.channelAccess.pendingQueue packetPopped:vector(packetBytes) ETV
attr interpolationmode none
attr title "packet popped, vector(packetBytes)"
vector 133 Scenario.node[4].wlan[0].mac.dcf.channelAccess.pendingQueue queueingTime:vector ETV
attr interpolationmode none
attr source queueingTime(packetPopped)
attr title "queueing times, vector"
attr unit s
vector 134 Scenario.node[4].wlan[0].mac.dcf.channelAccess.inProgressFrames queueLength:vector ETV
attr interpolationmode sample-hold
attr source "count(packetEnqueued) - count(packetDequeued)"
attr title "queue length, vector"
vector 135 Scenario.node[4].wlan[0].mac.dcf datarateSelected:vector ETV
attr interpolationmode none
attr title "datarates selected, vector"
vector 136 Scenario.node[4].wlan[0].mac packetSentToLower:vector(packetBytes) ETV
attr interpolationmode none
attr title "packets sent to lower layer, vector(packetBytes)"
vector 137 Scenario.node[4].wlan[0].mac.dcf frameSequenceActive:vector ETV
attr interpolationmode sample-hold
attr source count(frameSequenceStarted)-count(frameSequenceFinished)
attr title "frame sequence active, vector"
vector 138 Scenario.node[4].wlan[0].radio transmissionState:vector ETV
attr interpolationmode sample-hold
attr source transmissionStateChanged
attr title "Radio transmission state, vector"
vector 139 Scenario.node[4].wlan[0].mac.dcf packetSentToPeer:vector(packetBytes) ETV
attr interpolationmode none
attr title "packets sent, vector(packetBytes)"
vector 140 Scenario.node[4].wlan[0].mac.dcf packetSentToPeerMulticast:vector(packetBytes) ETV
attr interpolationmode none
attr source ieee80211Multicast(packetSentToPeer)
attr title "packets sent: multicast, vector(packetBytes)"
vector 141 Scenario.node[4].wlan[0].mac.dcf packetSentToPeerWithoutRetry:vector(packetBytes) ETV
attr interpolationmode none
attr source ieee80211NotRetry(packetSentToPeer)
attr title "packets sent: without retry, vector(packetBytes)"
vector 142 Scenario.node[4].wlan[0].mac.dcf.channelAccess.inProgressFrames queueingTime:vector ETV
attr interpolationmode none
attr source queueingTime(packetDequeued)
attr title "queueing times, vector"
vector 143 Scenario.node[2].wlan[0].mac.dcf.channelAccess.pendingQueue packetPopped:vector(packetBytes) ETV
attr interpolationmode none
attr title "packet popped, vector(packetBytes)"
vector 144 Scenario.node[2].wlan[0].mac.dcf.channelAccess.pendingQueue queueingTime:vector ETV
attr interpolationmode none
attr source queueingTime(packetPopped)
attr title "queueing times, vector"
attr unit s
vector 145 Scenario.node[2].wlan[0].mac.dcf.channelAccess.inProgressFrames queueLength:vector ETV
attr interpolationmode sample-hold
attr source "count(packetEnqueued) - count(packetDequeued)"
attr title "queue length, vector"
vector 146 Scenario.node[2].wlan[0].mac.dcf datarateSelected:vector ETV
attr interpolationmode none
attr title "datarates selected, vector"
vector 147 Scenario.node[2].wlan[0].mac packetSentToLower:vector(packetBytes) ETV
attr interpolationmode none
attr title "packets sent to lower layer, vector(packetBytes)"
vector 148 Scenario.node[2].wlan[0].mac.dcf frameSequenceActive:vector ETV
attr interpolationmode sample-hold
attr source count(frameSequenceStarted)-count(frameSequenceFinished)
attr title "frame sequence active, vector"
vector 149 Scenario.node[2].wlan[0].radio transmissionState:vector ETV
attr interpolationmode sample-hold
attr source transmissionStateChanged
attr title "Radio transmission state, vector"
vector 150 Scenario.node[2].wlan[0].mac.dcf packetSentToPeer:vector(packetBytes) ETV
attr interpolationmode none
attr title "packets sent, vector(packetBytes)"
vector 151 Scenario.node[2].wlan[0].mac.dcf packetSentToPeerMulticast:vector(packetBytes) ETV
attr interpolationmode none
attr source ieee80211Multicast(packetSentToPeer)
attr title "packets sent: multicast, vector(packetBytes)"
vector 152 Scenario.node[2].wlan[0].mac.dcf packetSentToPeerWithoutRetry:vector(packetBytes) ETV
attr interpolationmode none
attr source ieee80211NotRetry(packetSentToPeer)
attr title "packets sent: without retry, vector(packetBytes)"
vector 153 Scenario.node[2].wlan[0].mac.dcf.channelAccess.inProgressFrames queueingTime:vector ETV
attr interpolationmode none
attr source queueingTime(packetDequeued)
attr title "queueing times, vector"
vector 154 Scenario.node[1].wlan[0].mac.dcf.channelAccess.pendingQueue packetPopped:vector(packetBytes) ETV
attr interpolationmode none
attr title "packet popped, vector(packetBytes)"
vector 155 Scenario.node[1].wlan[0].mac.dcf.channelAccess.pendingQueue queueingTime:vector ETV
attr interpolationmode none
attr source queueingTime(packetPopped)
attr title "queueing times, vector"
attr unit s
vector 156 Scenario.node[1].wlan[0].mac.dcf.channelAccess.inProgressFrames queueLength:vector ETV
attr interpolationmode sample-hold
attr source "count(packetEnqueued) - count(packetDequeued)"
attr title "queue length, vector"
vector 157 Scenario.node[1].wlan[0].mac.dcf datarateSelected:vector ETV
attr interpolationmode none
attr title "datarates selected, vector"
vector 158 Scenario.node[1].wlan[0].mac packetSentToLower:vector(packetBytes) ETV
attr interpolationmode none
attr title "packets sent to lower layer, vector(packetBytes)"
vector 159 Scenario.node[1].wlan[0].mac.dcf frameSequenceActive:vector ETV
attr interpolationmode sample-hold
attr source count(frameSequenceStarted)-count(frameSequenceFinished)
attr title "frame sequence active, vector"
vector 160 Scenario.node[1].wlan[0].radio transmissionState:vector ETV
attr interpolationmode sample-hold
attr source transmissionStateChanged
attr title "Radio transmission state, vector"
vector 161 Scenario.node[1].wlan[0].mac.dcf packetSentToPeer:vector(packetBytes) ETV
attr interpolationmode none
attr title "packets sent, vector(packetBytes)"
vector 162 Scenario.node[1].wlan[0].mac.dcf packetSentToPeerMulticast:vector(packetBytes) ETV
attr interpolationmode none
attr source ieee80211Multicast(packetSentToPeer)
attr title "packets sent: multicast, vector(packetBytes)"
vector 163 Scenario.node[1].wlan[0].mac.dcf packetSentToPeerWithoutRetry:vector(packetBytes) ETV
attr interpolationmode none
attr source ieee80211NotRetry(packetSentToPeer)
attr title "packets sent: without retry, vector(packetBytes)"
vector 164 Scenario.node[1].wlan[0].mac.dcf.channelAccess.inProgressFrames queueingTime:vector ETV
attr interpolationmode none
attr source queueingTime(packetDequeued)
attr title "queueing times, vector"
22	820	80	128
22	828	80	128
23	820	80	128
23	828	80	128
127	929	80.000375796416	158
127	963	80.000651215141	158
127	1025	80.001123805929	158
127	1053	80.001359806026	158
37	835	80	158
37	969	80.000735215141	158
24	823	80	130
24	831	80	130
131	929	80.000375796416	130
131	963	80.000651215141	130
131	1025	80.001123805929	130
131	1053	80.001359806026	130
36	835	80	12000000
36	969	80.000735215141	12000000
38	835	80	1
38	842	80.000152	0
38	969	80.000735215141	1
38	976	80.000887215141	0
130	929	80.000375796416	158
130	963	80.000651215141	158
130	1025	80.001123805929	158
130	1053	80.001359806026	158
129	929	80.000375796416	158
129	963	80.000651215141	158
129	1025	80.001123805929	158
129	1053	80.001359806026	158
128	929	80.000375796416	158
128	963	80.000651215141	158
128	1025	80.001123805929	158
128	1053	80.001359806026	158
42	842	80.000152	158
42	976	80.000887215141	158
41	842	80.000152	158
41	976	80.000887215141	158
40	842	80.000152	158
40	976	80.000887215141	158
34	835	80	0
34	835	80	0
33	835	80	158
33	835	80	158
25	823	80	158
25	831	80	158
26	823	80	1
26	831	80	2
26	835	80	1
26	835	80	0
43	842	80.000152	0.000152
43	976	80.000887215141	0.000887215141
35	835	80	1
35	835	80	2
35	842	80.000152	1
35	976	80.000887215141	0
28	823	80	1
28	834	80	0
28	843	80.000152	1
28	907	80.000223796416	0
28	928	80.000375796416	1
28	941	80.000499215141	0
28	962	80.000651215141	1
28	968	80.000735215141	0
27	823	80	8
27	842	80.000152	8
3	2	0.1	15
1	2	0.1	3
0	2	0.1	0
0	2	0.1	0
0	2	0.1	2
0	836	80	3
0	843	80.000152	2
0	970	80.000735215141	3
0	977	80.000887215141	2
2	2	0.1	1
2	836	80	0
2	843	80.000152	1
2	907	80.000223796416	3
2	928	80.000375796416	1
2	941	80.000499215141	3
2	962	80.000651215141	1
2	970	80.000735215141	0
2	977	80.000887215141	1
2	1008	80.000971805929	3
2	1024	80.001123805929	1
2	1041	80.001207806026	3
2	1052	80.001359806026	1
39	836	80	1
39	837	80	2
39	842	80.000152	1
39	843	80.000152	0
39	970	80.000735215141	1
39	971	80.000735215141	2
39	976	80.000887215141	1
39	977	80.000887215141	0
29	824	80	108
29	832	80	108
29	932	80.000375796416	108
29	966	80.000651215141	108
29	1028	80.001123805929	108
29	1056	80.001359806026	108
21	818	80	108
21	826	80	108
30	824	80	1
30	832	80	2
30	932	80.000375796416	3
30	966	80.000651215141	4
30	1028	80.001123805929	5
30	1056	80.001359806026	6
32	825	0.1	0
32	825	0.2	0
32	825	0.3	0
32	825	0.4	0
32	825	0.5	0
32	825	0.6	0
32	825	0.7	0
32	825	0.8	0
32	825	0.9	0
32	825	1	0
32	825	1.1	0
32	825	1.2	0
32	825	1.3	0
32	825	1.4	0
32	825	1.5	0
32	825	1.6	0
32	825	1.7	0
32	825	1.8	0
32	825	1.9	0
32	825	2	0
32	825	2.1	0
32	825	2.2	0
32	825	2.3	0
32	825	2.4	0
32	825	2.5	0
32	825	2.6	0
32	825	2.7	0
32	825	2.8	0
32	825	2.9	0
32	825	3	0
32	825	3.1	0
32	825	3.2	0
32	825	3.3	0
32	825	3.4	0
32	825	3.5	0
32	825	3.6	0
32	825	3.7	0
32	825	3.8	0
32	825	3.9	0
32	825	4	0
32	825	4.1	0
32	825	4.2	0
32	825	4.3	0
32	825	4.4	0
32	825	4.5	0
32	825	4.6	0
32	825	4.7	0
32	825	4.8	0
32	825	4.9	0
32	825	5	0
32	825	5.1	0
32	825	5.2	0
32	825	5.3	0
32	825	5.4	0
32	825	5.5	0
32	825	5.6	0
32	825	5.7	0
32	825	5.8	0
32	825	5.9	0
32	825	6	0
32	825	6.1	0
32	825	6.2	0
32	825	6.3	0
32	825	6.4	0
32	825	6.5	0
32	825	6.6	0
32	825	6.7	0
32	825	6.8	0
32	825	6.9	0
32	825	7	0
32	825	7.1	0
32	825	7.2	0
32	825	7.3	0
32	825	7.4	0
32	825	7.5	0
32	825	7.6	0
32	825	7.7	0
32	825	7.8	0
32	825	7.9	0
32	825	8	0
32	825	8.1	0
32	825	8.2	0
32	825	8.3	0
32	825	8.4	0
32	825	8.5	0
32	825	8.6	0
32	825	8.7	0
32	825	8.8	0
32	825	8.9	0
32	825	9	0
32	825	9.1	0
32	825	9.2	0
32	825	9.3	0
32	825	9.4	0
32	825	9.5	0
32	825	9.6	0
32	825	9.7	0
32	825	9.8	0
32	825	9.9	0
32	825	10	0
32	825	10.1	0
32	825	10.2	0
32	825	10.3	0
32	825	10.4	0
32	825	10.5	0
32	825	10.6	0
32	825	10.7	0
32	825	10.8	0
32	825	10.9	0
32	825	11	0
32	825	11.1	0
32	825	11.2	0
32	825	11.3	0
32	825	11.4	0
32	825	11.5	0
32	825	11.6	0
32	825	11.7	0
32	825	11.8	0
32	825	11.9	0
32	825	12	0
32	825	12.1	0
32	825	12.2	0
32	825	12.3	0
32	825	12.4	0
32	825	12.5	0
32	825	12.6	0
32	825	12.7	0
32	825	12.8	0
32	825	12.9	0
32	825	13	0
32	825	13.1	0
32	825	13.2	0
32	825	13.3	0
32	825	13.4	0
32	825	13.5	0
32	825	13.6	0
32	825	13.7	0
32	825	13.8	0
32	825	13.9	0
32	825	14	0
32	825	14.1	0
32	825	14.2	0
32	825	14.3	0
32	825	14.4	0
32	825	14.5	0
32	825	14.6	0
32	825	14.7	0
32	825	14.8	0
32	825	14.9	0
32	825	15	0
32	825	15.1	0
32	825	15.2	0
32	825	15.3	0
32	825	15.4	0
32	825	15.5	0
32	825	15.6	0
32	825	15.7	0
32	825	15.8	0
32	825	15.9	0
32	825	16	0
32	825	16.1	0
32	825	16.2	0
32	825	16.3	0
32	825	16.4	0
32	825	16.5	0
32	825	16.6	0
32	825	16.7	0
32	825	16.8	0
32	825	16.9	0
32	825	17	0
32	825	17.1	0
32	825	17.2	0
32	825	17.3	0
32	825	17.4	0
32	825	17.5	0
32	825	17.6	0
32	825	17.7	0
32	825	17.8	0
32	825	17.9	0
32	825	18	0
32	825	18.1	0
32	825	18.2	0
32	825	18.3	0
32	825	18.4	0
32	825	18.5	0
32	825	18.6	0
32	825	18.7	0
32	825	18.8	0
32	825	18.9	0
32	825	19	0
32	825	19.1	0
32	825	19.2	0
32	825	19.3	0
32	825	19.4	0
32	825	19.5	0
32	825	19.6	0
32	825	19.7	0
32	825	19.8	0
32	825	19.9	0
32	825	20	0
32	825	20.1	0
32	825	20.2	0
32	825	20.3	0
32	825	20.4	0
32	825	20.5	0
32	825	20.6	0
32	825	20.7	0
32	825	20.8	0
32	825	20.9	0
32	825	21	0
32	825	21.1	0
32	825	21.2	0
32	825	21.3	0
32	825	21.4	0
32	825	21.5	0
32	825	21.6	0
32	825	21.7	0
32	825	21.8	0
32	825	21.9	0
32	825	22	0
32	825	22.1	0
32	825	22.2	0
32	825	22.3	0
32	825	22.4	0
32	825	22.5	0
32	825	22.6	0
32	825	22.7	0
32	825	22.8	0
32	825	22.9	0
32	825	23	0
32	825	23.1	0
32	825	23.2	0
32	825	23.3	0
32	825	23.4	0
32	825	23.5	0
32	825	23.6	0
32	825	23.7	0
32	825	23.8	0
32	825	23.9	0
32	825	24	0
32	825	24.1	0
32	825	24.2	0
32	825	24.3	0
32	825	24.4	0
32	825	24.5	0
32	825	24.6	0
32	825	24.7	0
32	825	24.8	0
32	825	24.9	0
32	825	25	0
32	825	25.1	0
32	825	25.2	0
32	825	25.3	0
32	825	25.4	0
32	825	25.5	0
32	825	25.6	0
32	825	25.7	0
32	825	25.8	0
32	825	25.9	0
32	825	26	0
32	825	26.1	0
32	825	26.2	0
32	825	26.3	0
32	825	26.4	0
32	825	26.5	0
32	825	26.6	0
32	825	26.7	0
32	825	26.8	0
32	825	26.9	0
32	825	27	0
32	825	27.1	0
32	825	27.2	0
32	825	27.3	0
32	825	27.4	0
32	825	27.5	0
32	825	27.6	0
32	825	27.7	0
32	825	27.8	0
32	825	27.9	0
32	825	28	0
32	825	28.1	0
32	825	28.2	0
32	825	28.3	0
32	825	28.4	0
32	825	28.5	0
32	825	28.6	0
32	825	28.7	0
32	825	28.8	0
32	825	28.9	0
32	825	29	0
32	825	29.1	0
32	825	29.2	0
32	825	29.3	0
32	825	29.4	0
32	825	29.5	0
32	825	29.6	0
32	825	29.7	0
32	825	29.8	0
32	825	29.9	0
32	825	30	0
32	825	30.1	0
32	825	30.2	0
32	825	30.3	0
32	825	30.4	0
32	825	30.5	0
32	825	30.6	0
32	825	30.7	0
32	825	30.8	0
32	825	30.9	0
32	825	31	0
32	825	31.1	0
32	825	31.2	0
32	825	31.3	0
32	825	31.4	0
32	825	31.5	0
32	825	31.6	0
32	825	31.7	0
32	825	31.8	0
32	825	31.9	0
32	825	32	0
32	825	32.1	0
32	825	32.2	0
32	825	32.3	0
32	825	32.4	0
32	825	32.5	0
32	825	32.6	0
32	825	32.7	0
32	825	32.8	0
32	825	32.9	0
32	825	33	0
32	825	33.1	0
32	825	33.2	0
32	825	33.3	0
32	825	33.4	0
32	825	33.5	0
32	825	33.6	0
32	825	33.7	0
32	825	33.8	0
32	825	33.9	0
32	825	34	0
32	825	34.1	0
32	825	34.2	0
32	825	34.3	0
32	825	34.4	0
32	825	34.5	0
32	825	34.6	0
32	825	34.7	0
32	825	34.8	0
32	825	34.9	0
32	825	35	0
32	825	35.1	0
32	825	35.2	0
32	825	35.3	0
32	825	35.4	0
32	825	35.5	0
32	825	35.6	0
32	825	35.7	0
32	825	35.8	0
32	825	35.9	0
32	825	36	0
32	825	36.1	0
32	825	36.2	0
32	825	36.3	0
32	825	36.4	0
32	825	36.5	0
32	825	36.6	0
32	825	36.7	0
32	825	36.8	0
32	825	36.9	0
32	825	37	0
32	825	37.1	0
32	825	37.2	0
32	825	37.3	0
32	825	37.4	0
32	825	37.5	0
32	825	37.6	0
32	825	37.7	0
32	825	37.8	0
32	825	37.9	0
32	825	38	0
32	825	38.1	0
32	825	38.2	0
32	825	38.3	0
32	825	38.4	0
32	825	38.5	0
32	825	38.6	0
32	825	38.7	0
32	825	38.8	0
32	825	38.9	0
32	825	39	0
32	825	39.1	0
32	825	39.2	0
32	825	39.3	0
32	825	39.4	0
32	825	39.5	0
32	825	39.6	0
32	825	39.7	0
32	825	39.8	0
32	825	39.9	0
32	825	40	0
32	825	40.1	0
32	825	40.2	0
32	825	40.3	0
32	825	40.4	0
32	825	40.5	0
32	825	40.6	0
32	825	40.7	0
32	825	40.8	0
32	825	40.9	0
32	825	41	0
32	825	41.1	0
32	825	41.2	0
32	825	41.3	0
32	825	41.4	0
32	825	41.5	0
32	825	41.6	0
32	825	41.7	0
32	825	41.8	0
32	825	41.9	0
32	825	42	0
32	825	42.1	0
32	825	42.2	0
32	825	42.3	0
32	825	42.4	0
32	825	42.5	0
32	825	42.6	0
32	825	42.7	0
32	825	42.8	0
32	825	42.9	0
32	825	43	0
32	825	43.1	0
32	825	43.2	0
32	825	43.3	0
32	825	43.4	0
32	825	43.5	0
32	825	43.6	0
32	825	43.7	0
32	825	43.8	0
32	825	43.9	0
32	825	44	0
32	825	44.1	0
32	825	44.2	0
32	825	44.3	0
32	825	44.4	0
32	825	44.5	0
32	825	44.6	0
32	825	44.7	0
32	825	44.8	0
32	825	44.9	0
32	825	45	0
32	825	45.1	0
32	825	45.2	0
32	825	45.3	0
32	825	45.4	0
32	825	45.5	0
32	825	45.6	0
32	825	45.7	0
32	825	45.8	0
32	825	45.9	0
32	825	46	0
32	825	46.1	0
32	825	46.2	0
32	825	46.3	0
32	825	46.4	0
32	825	46.5	0
32	825	46.6	0
32	825	46.7	0
32	825	46.8	0
32	825	46.9	0
32	825	47	0
32	825	47.1	0
32	825	47.2	0
32	825	47.3	0
32	825	47.4	0
32	825	47.5	0
32	825	47.6	0
32	825	47.7	0
32	825	47.8	0
32	825	47.9	0
32	825	48	0
32	825	48.1	0
32	825	48.2	0
32	825	48.3	0
32	825	48.4	0
32	825	48.5	0
32	825	48.6	0
32	825	48.7	0
32	825	48.8	0
32	825	48.9	0
32	825	49	0
32	825	49.1	0
32	825	49.2	0
32	825	49.3	0
32	825	49.4	0
32	825	49.5	0
32	825	49.6	0
32	825	49.7	0
32	825	49.8	0
32	825	49.9	0
32	825	50	0
32	825	50.1	0
32	825	50.2	0
32	825	50.3	0
32	825	50.4	0
32	825	50.5	0
32	825	50.6	0
32	825	50.7	0
32	825	50.8	0
32	825	50.9	0
32	825	51	0
32	825	51.1	0
32	825	51.2	0
32	825	51.3	0
32	825	51.4	0
32	825	51.5	0
32	825	51.6	0
32	825	51.7	0
32	825	51.8	0
32	825	51.9	0
32	825	52	0
32	825	52.1	0
32	825	52.2	0
32	825	52.3	0
32	825	52.4	0
32	825	52.5	0
32	825	52.6	0
32	825	52.7	0
32	825	52.8	0
32	825	52.9	0
32	825	53	0
32	825	53.1	0
32	825	53.2	0
32	825	53.3	0
32	825	53.4	0
32	825	53.5	0
32	825	53.6	0
32	825	53.7	0
32	825	53.8	0
32	825	53.9	0
32	825	54	0
32	825	54.1	0
32	825	54.2	0
32	825	54.3	0
32	825	54.4	0
32	825	54.5	0
32	825	54.6	0
32	825	54.7	0
32	825	54.8	0
32	825	54.9	0
32	825	55	0
32	825	55.1	0
32	825	55.2	0
32	825	55.3	0
32	825	55.4	0
32	825	55.5	0
32	825	55.6	0
32	825	55.7	0
32	825	55.8	0
32	825	55.9	0
32	825	56	0
32	825	56.1	0
32	825	56.2	0
32	825	56.3	0
32	825	56.4	0
32	825	56.5	0
32	825	56.6	0
32	825	56.7	0
32	825	56.8	0
32	825	56.9	0
32	825	57	0
32	825	57.1	0
32	825	57.2	0
32	825	57.3	0
32	825	57.4	0
32	825	57.5	0
32	825	57.6	0
32	825	57.7	0
32	825	57.8	0
32	825	57.9	0
32	825	58	0
32	825	58.1	0
32	825	58.2	0
32	825	58.3	0
32	825	58.4	0
32	825	58.5	0
32	825	58.6	0
32	825	58.7	0
32	825	58.8	0
32	825	58.9	0
32	825	59	0
32	825	59.1	0
32	825	59.2	0
32	825	59.3	0
32	825	59.4	0
32	825	59.5	0
32	825	59.6	0
32	825	59.7	0
32	825	59.8	0
32	825	59.9	0
32	825	60	0
32	825	60.1	0
32	825	60.2	0
32	825	60.3	0
32	825	60.4	0
32	825	60.5	0
32	825	60.6	0
32	825	60.7	0
32	825	60.8	0
32	825	60.9	0
32	825	61	0
32	825	61.1	0
32	825	61.2	0
32	825	61.3	0
32	825	61.4	0
32	825	61.5	0
32	825	61.6	0
32	825	61.7	0
32	825	61.8	0
32	825	61.9	0
32	825	62	0
32	825	62.1	0
32	825	62.2	0
32	825	62.3	0
32	825	62.4	0
32	825	62.5	0
32	825	62.6	0
32	825	62.7	0
32	825	62.8	0
32	825	62.9	0
32	825	63	0
32	825	63.1	0
32	825	63.2	0
32	825	63.3	0
32	825	63.4	0
32	825	63.5	0
32	825	63.6	0
32	825	63.7	0
32	825	63.8	0
32	825	63.9	0
32	825	64	0
32	825	64.1	0
32	825	64.2	0
32	825	64.3	0
32	825	64.4	0
32	825	64.5	0
32	825	64.6	0
32	825	64.7	0
32	825	64.8	0
32	825	64.9	0
32	825	65	0
32	825	65.1	0
32	825	65.2	0
32	825	65.3	0
32	825	65.4	0
32	825	65.5	0
32	825	65.6	0
32	825	65.7	0
32	825	65.8	0
32	825	65.9	0
32	825	66	0
32	825	66.1	0
32	825	66.2	0
32	825	66.3	0
32	825	66.4	0
32	825	66.5	0
32	825	66.6	0
32	825	66.7	0
32	825	66.8	0
32	825	66.9	0
32	825	67	0
32	825	67.1	0
32	825	67.2	0
32	825	67.3	0
32	825	67.4	0
32	825	67.5	0
32	825	67.6	0
32	825	67.7	0
32	825	67.8	0
32	825	67.9	0
32	825	68	0
32	825	68.1	0
32	825	68.2	0
32	825	68.3	0
32	825	68.4	0
32	825	68.5	0
32	825	68.6	0
32	825	68.7	0
32	825	68.8	0
32	825	68.9	0
32	825	69	0
32	825	69.1	0
32	825	69.2	0
32	825	69.3	0
32	825	69.4	0
32	825	69.5	0
32	825	69.6	0
32	825	69.7	0
32	825	69.8	0
32	825	69.9	0
32	825	70	0
32	825	70.1	0
32	825	70.2	0
32	825	70.3	0
32	825	70.4	0
32	825	70.5	0
32	825	70.6	0
32	825	70.7	0
32	825	70.8	0
32	825	70.9	0
32	825	71	0
32	825	71.1	0
32	825	71.2	0
32	825	71.3	0
32	825	71.4	0
32	825	71.5	0
32	825	71.6	0
32	825	71.7	0
32	825	71.8	0
32	825	71.9	0
32	825	72	0
32	825	72.1	0
32	825	72.2	0
32	825	72.3	0
32	825	72.4	0
32	825	72.5	0
32	825	72.6	0
32	825	72.7	0
32	825	72.8	0
32	825	72.9	0
32	825	73	0
32	825	73.1	0
32	825	73.2	0
32	825	73.3	0
32	825	73.4	0
32	825	73.5	0
32	825	73.6	0
32	825	73.7	0
32	825	73.8	0
32	825	73.9	0
32	825	74	0
32	825	74.1	0
32	825	74.2	0
32	825	74.3	0
32	825	74.4	0
32	825	74.5	0
32	825	74.6	0
32	825	74.7	0
32	825	74.8	0
32	825	74.9	0
32	825	75	0
32	825	75.1	0
32	825	75.2	0
32	825	75.3	0
32	825	75.4	0
32	825	75.5	0
32	825	75.6	0
32	825	75.7	0
32	825	75.8	0
32	825	75.9	0
32	825	76	0
32	825	76.1	0
32	825	76.2	0
32	825	76.3	0
32	825	76.4	0
32	825	76.5	0
32	825	76.6	0
32	825	76.7	0
32	825	76.8	0
32	825	76.9	0
32	825	77	0
32	825	77.1	0
32	825	77.2	0
32	825	77.3	0
32	825	77.4	0
32	825	77.5	0
32	825	77.6	0
32	825	77.7	0
32	825	77.8	0
32	825	77.9	0
32	825	78	0
32	825	78.1	0
32	825	78.2	0
32	825	78.3	0
32	825	78.4	0
32	825	78.5	0
32	825	78.6	0
32	825	78.7	0
32	825	78.8	0
32	825	78.9	0
32	825	79	0
32	825	79.1	0
32	825	79.2	0
32	825	79.3	0
32	825	79.4	0
32	825	79.5	0
32	825	79.6	0
32	825	79.7	0
32	825	79.8	0
32	825	79.9	0
32	825	80	0
32	1437	80.1	48000
32	1437	80.2	0
32	1437	80.3	0
32	1437	80.4	0
32	1437	80.5	0
32	1437	80.6	0
32	1437	80.7	0
32	1437	80.8	0
32	1437	80.9	0
32	1437	81	0
32	1437	81.1	0
32	1437	81.2	0
32	1437	81.3	0
32	1437	81.4	0
32	1437	81.5	0
32	1437	81.6	0
32	1437	81.7	0
32	1437	81.8	0
32	1437	81.9	0
32	1437	82	0
32	1437	82.1	0
32	1437	82.2	0
32	1437	82.3	0
32	1437	82.4	0
32	1437	82.5	0
32	1437	82.6	0
32	1437	82.7	0
32	1437	82.8	0
32	1437	82.9	0
32	1437	83	0
32	1437	83.1	0
32	1437	83.2	0
32	1437	83.3	0
32	1437	83.4	0
32	1437	83.5	0
32	1437	83.6	0
32	1437	83.7	0
32	1437	83.8	0
32	1437	83.9	0
32	1437	84	0
32	1437	84.1	0
32	1437	84.2	0
32	1437	84.3	0
32	1437	84.4	0
32	1437	84.5	0
32	1437	84.6	0
32	1437	84.7	0
32	1437	84.8	0
32	1437	84.9	0
32	1437	85	0
32	1437	85.1	0
32	1437	85.2	0
32	1437	85.3	0
32	1437	85.4	0
32	1437	85.5	0
32	1437	85.6	0
32	1437	85.7	0
32	1437	85.8	0
32	1437	85.9	0
32	1437	86	0
32	1437	86.1	0
32	1437	86.2	0
32	1437	86.3	0
32	1437	86.4	0
32	1437	86.5	0
32	1437	86.6	0
32	1437	86.7	0
32	1437	86.8	0
32	1437	86.9	0
32	1437	87	0
32	1437	87.1	0
32	1437	87.2	0
32	1437	87.3	0
32	1437	87.4	0
32	1437	87.5	0
32	1437	87.6	0
32	1437	87.7	0
32	1437	87.8	0
32	1437	87.9	0
32	1437	88	0
32	1437	88.1	0
32	1437	88.2	0
32	1437	88.3	0
32	1437	88.4	0
32	1437	88.5	0
32	1437	88.6	0
32	1437	88.7	0
32	1437	88.8	0
32	1437	88.9	0
32	1437	89	0
32	1437	89.1	0
32	1437	89.2	0
32	1437	89.3	0
32	1437	89.4	0
32	1437	89.5	0
32	1437	89.6	0
32	1437	89.7	0
32	1437	89.8	0
32	1437	89.9	0
32	1437	90	0
32	1437	90.1	0
32	1437	90.2	0
32	1437	90.3	0
32	1437	90.4	0
32	1437	90.5	0
32	1437	90.6	0
32	1437	90.7	0
32	1437	90.8	0
32	1437	90.9	0
32	1437	91	0
32	1437	91.1	0
32	1437	91.2	0
32	1437	91.3	0
32	1437	91.4	0
32	1437	91.5	0
32	1437	91.6	0
32	1437	91.7	0
32	1437	91.8	0
32	1437	91.9	0
32	1437	92	0
32	1437	92.1	0
32	1437	92.2	0
32	1437	92.3	0
32	1437	92.4	0
32	1437	92.5	0
32	1437	92.6	0
32	1437	92.7	0
32	1437	92.8	0
32	1437	92.9	0
32	1437	93	0
32	1437	93.1	0
32	1437	93.2	0
32	1437	93.3	0
32	1437	93.4	0
32	1437	93.5	0
32	1437	93.6	0
32	1437	93.7	0
32	1437	93.8	0
32	1437	93.9	0
32	1437	94	0
32	1437	94.1	0
32	1437	94.2	0
32	1437	94.3	0
32	1437	94.4	0
32	1437	94.5	0
32	1437	94.6	0
32	1437	94.7	0
32	1437	94.8	0
32	1437	94.9	0
32	1437	95	0
32	1437	95.1	0
32	1437	95.2	0
32	1437	95.3	0
32	1437	95.4	0
32	1437	95.5	0
32	1437	95.6	0
32	1437	95.7	0
32	1437	95.8	0
32	1437	95.9	0
32	1437	96	0
32	1437	96.1	0
32	1437	96.2	0
32	1437	96.3	0
32	1437	96.4	0
32	1437	96.5	0
32	1437	96.6	0
32	1437	96.7	0
32	1437	96.8	0
32	1437	96.9	0
32	1437	97	0
32	1437	97.1	0
32	1437	97.2	0
32	1437	97.3	0
32	1437	97.4	0
32	1437	97.5	0
32	1437	97.6	0
32	1437	97.7	0
32	1437	97.8	0
32	1437	97.9	0
32	1437	98	0
32	1437	98.1	0
32	1437	98.2	0
32	1437	98.3	0
32	1437	98.4	0
32	1437	98.5	0
32	1437	98.6	0
32	1437	98.7	0
32	1437	98.8	0
32	1437	98.9	0
32	1437	99	0
32	1437	99.1	0
32	1437	99.2	0
32	1437	99.3	0
32	1437	99.4	0
32	1437	99.5	0
32	1437	99.6	0
32	1437	99.7	0
32	1437	99.8	0
32	1437	99.9	0
32	1437	100	0
32	1437	100.1	0
32	1437	100.2	0
32	1437	100.3	0
32	1437	100.4	0
32	1437	100.5	0
32	1437	100.6	0
32	1437	100.7	0
32	1437	100.8	0
32	1437	100.9	0
32	1437	101	0
32	1437	101.1	0
32	1437	101.2	0
32	1437	101.3	0
32	1437	101.4	0
32	1437	101.5	0
32	1437	101.6	0
32	1437	101.7	0
32	1437	101.8	0
32	1437	101.9	0
32	1437	102	0
32	1437	102.1	0
32	1437	102.2	0
32	1437	102.3	0
32	1437	102.4	0
32	1437	102.5	0
32	1437	102.6	0
32	1437	102.7	0
32	1437	102.8	0
32	1437	102.9	0
32	1437	103	0
32	1437	103.1	0
32	1437	103.2	0
32	1437	103.3	0
32	1437	103.4	0
32	1437	103.5	0
32	1437	103.6	0
32	1437	103.7	0
32	1437	103.8	0
32	1437	103.9	0
32	1437	104	0
32	1437	104.1	0
32	1437	104.2	0
32	1437	104.3	0
32	1437	104.4	0
32	1437	104.5	0
32	1437	104.6	0
32	1437	104.7	0
32	1437	104.8	0
32	1437	104.9	0
32	1437	105	0
32	1437	105.1	0
32	1437	105.2	0
32	1437	105.3	0
32	1437	105.4	0
32	1437	105.5	0
32	1437	105.6	0
32	1437	105.7	0
32	1437	105.8	0
32	1437	105.9	0
32	1437	106	0
32	1437	106.1	0
32	1437	106.2	0
32	1437	106.3	0
32	1437	106.4	0
32	1437	106.5	0
32	1437	106.6	0
32	1437	106.7	0
32	1437	106.8	0
32	1437	106.9	0
32	1437	107	0
32	1437	107.1	0
32	1437	107.2	0
32	1437	107.3	0
32	1437	107.4	0
32	1437	107.5	0
32	1437	107.6	0
32	1437	107.7	0
32	1437	107.8	0
32	1437	107.9	0
32	1437	108	0
32	1437	108.1	0
32	1437	108.2	0
32	1437	108.3	0
32	1437	108.4	0
32	1437	108.5	0
32	1437	108.6	0
32	1437	108.7	0
32	1437	108.8	0
32	1437	108.9	0
32	1437	109	0
32	1437	109.1	0
32	1437	109.2	0
32	1437	109.3	0
32	1437	109.4	0
32	1437	109.5	0
32	1437	109.6	0
32	1437	109.7	0
32	1437	109.8	0
32	1437	109.9	0
32	1437	110	0
32	1437	110.1	0
32	1437	110.2	0
32	1437	110.3	0
32	1437	110.4	0
32	1437	110.5	0
32	1437	110.6	0
32	1437	110.7	0
32	1437	110.8	0
32	1437	110.9	0
32	1437	111	0
32	1437	111.1	0
32	1437	111.2	0
32	1437	111.3	0
32	1437	111.4	0
32	1437	111.5	0
32	1437	111.6	0
32	1437	111.7	0
32	1437	111.8	0
32	1437	111.9	0
32	1437	112	0
32	1437	112.1	0
32	1437	112.2	0
32	1437	112.3	0
32	1437	112.4	0
32	1437	112.5	0
32	1437	112.6	0
32	1437	112.7	0
32	1437	112.8	0
32	1437	112.9	0
32	1437	113	0
32	1437	113.1	0
32	1437	113.2	0
32	1437	113.3	0
32	1437	113.4	0
32	1437	113.5	0
32	1437	113.6	0
32	1437	113.7	0
32	1437	113.8	0
32	1437	113.9	0
32	1437	114	0
32	1437	114.1	0
32	1437	114.2	0
32	1437	114.3	0
32	1437	114.4	0
32	1437	114.5	0
32	1437	114.6	0
32	1437	114.7	0
32	1437	114.8	0
32	1437	114.9	0
32	1437	115	0
32	1437	115.1	0
32	1437	115.2	0
32	1437	115.3	0
32	1437	115.4	0
32	1437	115.5	0
32	1437	115.6	0
32	1437	115.7	0
32	1437	115.8	0
32	1437	115.9	0
32	1437	116	0
32	1437	116.1	0
31	825	80	100
31	833	80	100
31	933	80.000375796416	100
31	967	80.000651215141	100
31	1029	80.001123805929	100
31	1057	80.001359806026	100
20	816	80	100
20	825	80	100
55	852	80.00015217892	128
56	852	80.00015217892	128
44	845	80.00015217892	158
44	923	80.000375617627	158
44	957	80.000651036231	158
44	979	80.000887394061	158
44	1019	80.001123627106	158
158	1037	80.001207627106	158
57	855	80.00015217892	130
48	845	80.00015217892	130
48	923	80.000375617627	130
48	957	80.000651036231	130
48	979	80.000887394061	130
48	1019	80.001123627106	130
157	1037	80.001207627106	12000000
159	1037	80.001207627106	1
159	1044	80.001359627106	0
47	845	80.00015217892	158
47	923	80.000375617627	158
47	957	80.000651036231	158
47	979	80.000887394061	158
47	1019	80.001123627106	158
46	845	80.00015217892	158
46	923	80.000375617627	158
46	957	80.000651036231	158
46	979	80.000887394061	158
46	1019	80.001123627106	158
45	845	80.00015217892	158
45	923	80.000375617627	158
45	957	80.000651036231	158
45	979	80.000887394061	158
45	1019	80.001123627106	158
163	1044	80.001359627106	158
162	1044	80.001359627106	158
161	1044	80.001359627106	158
155	1037	80.001207627106	0.001055448186
154	1037	80.001207627106	158
58	855	80.00015217892	158
59	855	80.00015217892	1
59	1037	80.001207627106	0
164	1044	80.001359627106	0.000152
156	1037	80.001207627106	1
156	1044	80.001359627106	0
61	855	80.00015217892	1
61	906	80.000223617627	0
61	922	80.000375617627	1
61	940	80.000499036231	0
61	956	80.000651036231	1
61	972	80.000735394061	0
61	978	80.000887394061	1
61	1007	80.000971627106	0
61	1018	80.001123627106	1
61	1036	80.001207627106	0
60	855	80.00015217892	12
7	55	5.1	15
5	55	5.1	3
4	55	5.1	0
4	55	5.1	0
4	55	5.1	2
4	1038	80.001207627106	3
4	1045	80.001359627106	2
6	55	5.1	1
6	838	80.00000017892	3
6	844	80.00015217892	1
6	906	80.000223617627	3
6	922	80.000375617627	1
6	940	80.000499036231	3
6	956	80.000651036231	1
6	972	80.000735394061	3
6	978	80.000887394061	1
6	1007	80.000971627106	3
6	1018	80.001123627106	1
6	1038	80.001207627106	0
6	1045	80.001359627106	1
160	1038	80.001207627106	1
160	1039	80.001207627106	2
160	1044	80.001359627106	1
160	1045	80.001359627106	0
49	848	80.00015217892	108
49	856	80.00015217892	108
49	926	80.000375617627	108
49	960	80.000651036231	108
49	982	80.000887394061	108
49	1022	80.001123627106	108
54	850	80.00015217892	108
50	848	80.00015217892	1
50	856	80.00015217892	2
50	926	80.000375617627	3
50	960	80.000651036231	4
50	982	80.000887394061	5
50	1022	80.001123627106	6
52	849	0.1	0
52	849	0.2	0
52	849	0.3	0
52	849	0.4	0
52	849	0.5	0
52	849	0.6	0
52	849	0.7	0
52	849	0.8	0
52	849	0.9	0
52	849	1	0
52	849	1.1	0
52	849	1.2	0
52	849	1.3	0
52	849	1.4	0
52	849	1.5	0
52	849	1.6	0
52	849	1.7	0
52	849	1.8	0
52	849	1.9	0
52	849	2	0
52	849	2.1	0
52	849	2.2	0
52	849	2.3	0
52	849	2.4	0
52	849	2.5	0
52	849	2.6	0
52	849	2.7	0
52	849	2.8	0
52	849	2.9	0
52	849	3	0
52	849	3.1	0
52	849	3.2	0
52	849	3.3	0
52	849	3.4	0
52	849	3.5	0
52	849	3.6	0
52	849	3.7	0
52	849	3.8	0
52	849	3.9	0
52	849	4	0
52	849	4.1	0
52	849	4.2	0
52	849	4.3	0
52	849	4.4	0
52	849	4.5	0
52	849	4.6	0
52	849	4.7	0
52	849	4.8	0
52	849	4.9	0
52	849	5	0
52	849	5.1	0
52	849	5.2	0
52	849	5.3	0
52	849	5.4	0
52	849	5.5	0
52	849	5.6	0
52	849	5.7	0
52	849	5.8	0
52	849	5.9	0
52	849	6	0
52	849	6.1	0
52	849	6.2	0
52	849	6.3	0
52	849	6.4	0
52	849	6.5	0
52	849	6.6	0
52	849	6.7	0
52	849	6.8	0
52	849	6.9	0
52	849	7	0
52	849	7.1	0
52	849	7.2	0
52	849	7.3	0
52	849	7.4	0
52	849	7.5	0
52	849	7.6	0
52	849	7.7	0
52	849	7.8	0
52	849	7.9	0
52	849	8	0
52	849	8.1	0
52	849	8.2	0
52	849	8.3	0
52	849	8.4	0
52	849	8.5	0
52	849	8.6	0
52	849	8.7	0
52	849	8.8	0
52	849	8.9	0
52	849	9	0
52	849	9.1	0
52	849	9.2	0
52	849	9.3	0
52	849	9.4	0
52	849	9.5	0
52	849	9.6	0
52	849	9.7	0
52	849	9.8	0
52	849	9.9	0
52	849	10	0
52	849	10.1	0
52	849	10.2	0
52	849	10.3	0
52	849	10.4	0
52	849	10.5	0
52	849	10.6	0
52	849	10.7	0
52	849	10.8	0
52	849	10.9	0
52	849	11	0
52	849	11.1	0
52	849	11.2	0
52	849	11.3	0
52	849	11.4	0
52	849	11.5	0
52	849	11.6	0
52	849	11.7	0
52	849	11.8	0
52	849	11.9	0
52	849	12	0
52	849	12.1	0
52	849	12.2	0
52	849	12.3	0
52	849	12.4	0
52	849	12.5	0
52	849	12.6	0
52	849	12.7	0
52	849	12.8	0
52	849	12.9	0
52	849	13	0
52	849	13.1	0
52	849	13.2	0
52	849	13.3	0
52	849	13.4	0
52	849	13.5	0
52	849	13.6	0
52	849	13.7	0
52	849	13.8	0
52	849	13.9	0
52	849	14	0
52	849	14.1	0
52	849	14.2	0
52	849	14.3	0
52	849	14.4	0
52	849	14.5	0
52	849	14.6	0
52	849	14.7	0
52	849	14.8	0
52	849	14.9	0
52	849	15	0
52	849	15.1	0
52	849	15.2	0
52	849	15.3	0
52	849	15.4	0
52	849	15.5	0
52	849	15.6	0
52	849	15.7	0
52	849	15.8	0
52	849	15.9	0
52	849	16	0
52	849	16.1	0
52	849	16.2	0
52	849	16.3	0
52	849	16.4	0
52	849	16.5	0
52	849	16.6	0
52	849	16.7	0
52	849	16.8	0
52	849	16.9	0
52	849	17	0
52	849	17.1	0
52	849	17.2	0
52	849	17.3	0
52	849	17.4	0
52	849	17.5	0
52	849	17.6	0
52	849	17.7	0
52	849	17.8	0
52	849	17.9	0
52	849	18	0
52	849	18.1	0
52	849	18.2	0
52	849	18.3	0
52	849	18.4	0
52	849	18.5	0
52	849	18.6	0
52	849	18.7	0
52	849	18.8	0
52	849	18.9	0
52	849	19	0
52	849	19.1	0
52	849	19.2	0
52	849	19.3	0
52	849	19.4	0
52	849	19.5	0
52	849	19.6	0
52	849	19.7	0
52	849	19.8	0
52	849	19.9	0
52	849	20	0
52	849	20.1	0
52	849	20.2	0
52	849	20.3	0
52	849	20.4	0
52	849	20.5	0
52	849	20.6	0
52	849	20.7	0
52	849	20.8	0
52	849	20.9	0
52	849	21	0
52	849	21.1	0
52	849	21.2	0
52	849	21.3	0
52	849	21.4	0
52	849	21.5	0
52	849	21.6	0
52	849	21.7	0
52	849	21.8	0
52	849	21.9	0
52	849	22	0
52	849	22.1	0
52	849	22.2	0
52	849	22.3	0
52	849	22.4	0
52	849	22.5	0
52	849	22.6	0
52	849	22.7	0
52	849	22.8	0
52	849	22.9	0
52	849	23	0
52	849	23.1	0
52	849	23.2	0
52	849	23.3	0
52	849	23.4	0
52	849	23.5	0
52	849	23.6	0
52	849	23.7	0
52	849	23.8	0
52	849	23.9	0
52	849	24	0
52	849	24.1	0
52	849	24.2	0
52	849	24.3	0
52	849	24.4	0
52	849	24.5	0
52	849	24.6	0
52	849	24.7	0
52	849	24.8	0
52	849	24.9	0
52	849	25	0
52	849	25.1	0
52	849	25.2	0
52	849	25.3	0
52	849	25.4	0
52	849	25.5	0
52	849	25.6	0
52	849	25.7	0
52	849	25.8	0
52	849	25.9	0
52	849	26	0
52	849	26.1	0
52	849	26.2	0
52	849	26.3	0
52	849	26.4	0
52	849	26.5	0
52	849	26.6	0
52	849	26.7	0
52	849	26.8	0
52	849	26.9	0
52	849	27	0
52	849	27.1	0
52	849	27.2	0
52	849	27.3	0
52	849	27.4	0
52	849	27.5	0
52	849	27.6	0
52	849	27.7	0
52	849	27.8	0
52	849	27.9	0
52	849	28	0
52	849	28.1	0
52	849	28.2	0
52	849	28.3	0
52	849	28.4	0
52	849	28.5	0
52	849	28.6	0
52	849	28.7	0
52	849	28.8	0
52	849	28.9	0
52	849	29	0
52	849	29.1	0
52	849	29.2	0
52	849	29.3	0
52	849	29.4	0
52	849	29.5	0
52	849	29.6	0
52	849	29.7	0
52	849	29.8	0
52	849	29.9	0
52	849	30	0
52	849	30.1	0
52	849	30.2	0
52	849	30.3	0
52	849	30.4	0
52	849	30.5	0
52	849	30.6	0
52	849	30.7	0
52	849	30.8	0
52	849	30.9	0
52	849	31	0
52	849	31.1	0
52	849	31.2	0
52	849	31.3	0
52	849	31.4	0
52	849	31.5	0
52	849	31.6	0
52	849	31.7	0
52	849	31.8	0
52	849	31.9	0
52	849	32	0
52	849	32.1	0
52	849	32.2	0
52	849	32.3	0
52	849	32.4	0
52	849	32.5	0
52	849	32.6	0
52	849	32.7	0
52	849	32.8	0
52	849	32.9	0
52	849	33	0
52	849	33.1	0
52	849	33.2	0
52	849	33.3	0
52	849	33.4	0
52	849	33.5	0
52	849	33.6	0
52	849	33.7	0
52	849	33.8	0
52	849	33.9	0
52	849	34	0
52	849	34.1	0
52	849	34.2	0
52	849	34.3	0
52	849	34.4	0
52	849	34.5	0
52	849	34.6	0
52	849	34.7	0
52	849	34.8	0
52	849	34.9	0
52	849	35	0
52	849	35.1	0
52	849	35.2	0
52	849	35.3	0
52	849	35.4	0
52	849	35.5	0
52	849	35.6	0
52	849	35.7	0
52	849	35.8	0
52	849	35.9	0
52	849	36	0
52	849	36.1	0
52	849	36.2	0
52	849	36.3	0
52	849	36.4	0
52	849	36.5	0
52	849	36.6	0
52	849	36.7	0
52	849	36.8	0
52	849	36.9	0
52	849	37	0
52	849	37.1	0
52	849	37.2	0
52	849	37.3	0
52	849	37.4	0
52	849	37.5	0
52	849	37.6	0
52	849	37.7	0
52	849	37.8	0
52	849	37.9	0
52	849	38	0
52	849	38.1	0
52	849	38.2	0
52	849	38.3	0
52	849	38.4	0
52	849	38.5	0
52	849	38.6	0
52	849	38.7	0
52	849	38.8	0
52	849	38.9	0
52	849	39	0
52	849	39.1	0
52	849	39.2	0
52	849	39.3	0
52	849	39.4	0
52	849	39.5	0
52	849	39.6	0
52	849	39.7	0
52	849	39.8	0
52	849	39.9	0
52	849	40	0
52	849	40.1	0
52	849	40.2	0
52	849	40.3	0
52	849	40.4	0
52	849	40.5	0
52	849	40.6	0
52	849	40.7	0
52	849	40.8	0
52	849	40.9	0
52	849	41	0
52	849	41.1	0
52	849	41.2	0
52	849	41.3	0
52	849	41.4	0
52	849	41.5	0
52	849	41.6	0
52	849	41.7	0
52	849	41.8	0
52	849	41.9	0
52	849	42	0
52	849	42.1	0
52	849	42.2	0
52	849	42.3	0
52	849	42.4	0
52	849	42.5	0
52	849	42.6	0
52	849	42.7	0
52	849	42.8	0
52	849	42.9	0
52	849	43	0
52	849	43.1	0
52	849	43.2	0
52	849	43.3	0
52	849	43.4	0
52	849	43.5	0
52	849	43.6	0
52	849	43.7	0
52	849	43.8	0
52	849	43.9	0
52	849	44	0
52	849	44.1	0
52	849	44.2	0
52	849	44.3	0
52	849	44.4	0
52	849	44.5	0
52	849	44.6	0
52	849	44.7	0
52	849	44.8	0
52	849	44.9	0
52	849	45	0
52	849	45.1	0
52	849	45.2	0
52	849	45.3	0
52	849	45.4	0
52	849	45.5	0
52	849	45.6	0
52	849	45.7	0
52	849	45.8	0
52	849	45.9	0
52	849	46	0
52	849	46.1	0
52	849	46.2	0
52	849	46.3	0
52	849	46.4	0
52	849	46.5	0
52	849	46.6	0
52	849	46.7	0
52	849	46.8	0
52	849	46.9	0
52	849	47	0
52	849	47.1	0
52	849	47.2	0
52	849	47.3	0
52	849	47.4	0
52	849	47.5	0
52	849	47.6	0
52	849	47.7	0
52	849	47.8	0
52	849	47.9	0
52	849	48	0
52	849	48.1	0
52	849	48.2	0
52	849	48.3	0
52	849	48.4	0
52	849	48.5	0
52	849	48.6	0
52	849	48.7	0
52	849	48.8	0
52	849	48.9	0
52	849	49	0
52	849	49.1	0
52	849	49.2	0
52	849	49.3	0
52	849	49.4	0
52	849	49.5	0
52	849	49.6	0
52	849	49.7	0
52	849	49.8	0
52	849	49.9	0
52	849	50	0
52	849	50.1	0
52	849	50.2	0
52	849	50.3	0
52	849	50.4	0
52	849	50.5	0
52	849	50.6	0
52	849	50.7	0
52	849	50.8	0
52	849	50.9	0
52	849	51	0
52	849	51.1	0
52	849	51.2	0
52	849	51.3	0
52	849	51.4	0
52	849	51.5	0
52	849	51.6	0
52	849	51.7	0
52	849	51.8	0
52	849	51.9	0
52	849	52	0
52	849	52.1	0
52	849	52.2	0
52	849	52.3	0
52	849	52.4	0
52	849	52.5	0
52	849	52.6	0
52	849	52.7	0
52	849	52.8	0
52	849	52.9	0
52	849	53	0
52	849	53.1	0
52	849	53.2	0
52	849	53.3	0
52	849	53.4	0
52	849	53.5	0
52	849	53.6	0
52	849	53.7	0
52	849	53.8	0
52	849	53.9	0
52	849	54	0
52	849	54.1	0
52	849	54.2	0
52	849	54.3	0
52	849	54.4	0
52	849	54.5	0
52	849	54.6	0
52	849	54.7	0
52	849	54.8	0
52	849	54.9	0
52	849	55	0
52	849	55.1	0
52	849	55.2	0
52	849	55.3	0
52	849	55.4	0
52	849	55.5	0
52	849	55.6	0
52	849	55.7	0
52	849	55.8	0
52	849	55.9	0
52	849	56	0
52	849	56.1	0
52	849	56.2	0
52	849	56.3	0
52	849	56.4	0
52	849	56.5	0
52	849	56.6	0
52	849	56.7	0
52	849	56.8	0
52	849	56.9	0
52	849	57	0
52	849	57.1	0
52	849	57.2	0
52	849	57.3	0
52	849	57.4	0
52	849	57.5	0
52	849	57.6	0
52	849	57.7	0
52	849	57.8	0
52	849	57.9	0
52	849	58	0
52	849	58.1	0
52	849	58.2	0
52	849	58.3	0
52	849	58.4	0
52	849	58.5	0
52	849	58.6	0
52	849	58.7	0
52	849	58.8	0
52	849	58.9	0
52	849	59	0
52	849	59.1	0
52	849	59.2	0
52	849	59.3	0
52	849	59.4	0
52	849	59.5	0
52	849	59.6	0
52	849	59.7	0
52	849	59.8	0
52	849	59.9	0
52	849	60	0
52	849	60.1	0
52	849	60.2	0
52	849	60.3	0
52	849	60.4	0
52	849	60.5	0
52	849	60.6	0
52	849	60.7	0
52	849	60.8	0
52	849	60.9	0
52	849	61	0
52	849	61.1	0
52	849	61.2	0
52	849	61.3	0
52	849	61.4	0
52	849	61.5	0
52	849	61.6	0
52	849	61.7	0
52	849	61.8	0
52	849	61.9	0
52	849	62	0
52	849	62.1	0
52	849	62.2	0
52	849	62.3	0
52	849	62.4	0
52	849	62.5	0
52	849	62.6	0
52	849	62.7	0
52	849	62.8	0
52	849	62.9	0
52	849	63	0
52	849	63.1	0
52	849	63.2	0
52	849	63.3	0
52	849	63.4	0
52	849	63.5	0
52	849	63.6	0
52	849	63.7	0
52	849	63.8	0
52	849	63.9	0
52	849	64	0
52	849	64.1	0
52	849	64.2	0
52	849	64.3	0
52	849	64.4	0
52	849	64.5	0
52	849	64.6	0
52	849	64.7	0
52	849	64.8	0
52	849	64.9	0
52	849	65	0
52	849	65.1	0
52	849	65.2	0
52	849	65.3	0
52	849	65.4	0
52	849	65.5	0
52	849	65.6	0
52	849	65.7	0
52	849	65.8	0
52	849	65.9	0
52	849	66	0
52	849	66.1	0
52	849	66.2	0
52	849	66.3	0
52	849	66.4	0
52	849	66.5	0
52	849	66.6	0
52	849	66.7	0
52	849	66.8	0
52	849	66.9	0
52	849	67	0
52	849	67.1	0
52	849	67.2	0
52	849	67.3	0
52	849	67.4	0
52	849	67.5	0
52	849	67.6	0
52	849	67.7	0
52	849	67.8	0
52	849	67.9	0
52	849	68	0
52	849	68.1	0
52	849	68.2	0
52	849	68.3	0
52	849	68.4	0
52	849	68.5	0
52	849	68.6	0
52	849	68.7	0
52	849	68.8	0
52	849	68.9	0
52	849	69	0
52	849	69.1	0
52	849	69.2	0
52	849	69.3	0
52	849	69.4	0
52	849	69.5	0
52	849	69.6	0
52	849	69.7	0
52	849	69.8	0
52	849	69.9	0
52	849	70	0
52	849	70.1	0
52	849	70.2	0
52	849	70.3	0
52	849	70.4	0
52	849	70.5	0
52	849	70.6	0
52	849	70.7	0
52	849	70.8	0
52	849	70.9	0
52	849	71	0
52	849	71.1	0
52	849	71.2	0
52	849	71.3	0
52	849	71.4	0
52	849	71.5	0
52	849	71.6	0
52	849	71.7	0
52	849	71.8	0
52	849	71.9	0
52	849	72	0
52	849	72.1	0
52	849	72.2	0
52	849	72.3	0
52	849	72.4	0
52	849	72.5	0
52	849	72.6	0
52	849	72.7	0
52	849	72.8	0
52	849	72.9	0
52	849	73	0
52	849	73.1	0
52	849	73.2	0
52	849	73.3	0
52	849	73.4	0
52	849	73.5	0
52	849	73.6	0
52	849	73.7	0
52	849	73.8	0
52	849	73.9	0
52	849	74	0
52	849	74.1	0
52	849	74.2	0
52	849	74.3	0
52	849	74.4	0
52	849	74.5	0
52	849	74.6	0
52	849	74.7	0
52	849	74.8	0
52	849	74.9	0
52	849	75	0
52	849	75.1	0
52	849	75.2	0
52	849	75.3	0
52	849	75.4	0
52	849	75.5	0
52	849	75.6	0
52	849	75.7	0
52	849	75.8	0
52	849	75.9	0
52	849	76	0
52	849	76.1	0
52	849	76.2	0
52	849	76.3	0
52	849	76.4	0
52	849	76.5	0
52	849	76.6	0
52	849	76.7	0
52	849	76.8	0
52	849	76.9	0
52	849	77	0
52	849	77.1	0
52	849	77.2	0
52	849	77.3	0
52	849	77.4	0
52	849	77.5	0
52	849	77.6	0
52	849	77.7	0
52	849	77.8	0
52	849	77.9	0
52	849	78	0
52	849	78.1	0
52	849	78.2	0
52	849	78.3	0
52	849	78.4	0
52	849	78.5	0
52	849	78.6	0
52	849	78.7	0
52	849	78.8	0
52	849	78.9	0
52	849	79	0
52	849	79.1	0
52	849	79.2	0
52	849	79.3	0
52	849	79.4	0
52	849	79.5	0
52	849	79.6	0
52	849	79.7	0
52	849	79.8	0
52	849	79.9	0
52	849	80	0
52	1477	80.1	48000
52	1477	80.2	0
52	1477	80.3	0
52	1477	80.4	0
52	1477	80.5	0
52	1477	80.6	0
52	1477	80.7	0
52	1477	80.8	0
52	1477	80.9	0
52	1477	81	0
52	1477	81.1	0
52	1477	81.2	0
52	1477	81.3	0
52	1477	81.4	0
52	1477	81.5	0
52	1477	81.6	0
52	1477	81.7	0
52	1477	81.8	0
52	1477	81.9	0
52	1477	82	0
52	1477	82.1	0
52	1477	82.2	0
52	1477	82.3	0
52	1477	82.4	0
52	1477	82.5	0
52	1477	82.6	0
52	1477	82.7	0
52	1477	82.8	0
52	1477	82.9	0
52	1477	83	0
52	1477	83.1	0
52	1477	83.2	0
52	1477	83.3	0
52	1477	83.4	0
52	1477	83.5	0
52	1477	83.6	0
52	1477	83.7	0
52	1477	83.8	0
52	1477	83.9	0
52	1477	84	0
52	1477	84.1	0
52	1477	84.2	0
52	1477	84.3	0
52	1477	84.4	0
52	1477	84.5	0
52	1477	84.6	0
52	1477	84.7	0
52	1477	84.8	0
52	1477	84.9	0
52	1477	85	0
52	1477	85.1	0
52	1477	85.2	0
52	1477	85.3	0
52	1477	85.4	0
52	1477	85.5	0
52	1477	85.6	0
52	1477	85.7	0
52	1477	85.8	0
52	1477	85.9	0
52	1477	86	0
52	1477	86.1	0
52	1477	86.2	0
52	1477	86.3	0
52	1477	86.4	0
52	1477	86.5	0
52	1477	86.6	0
52	1477	86.7	0
52	1477	86.8	0
52	1477	86.9	0
52	1477	87	0
52	1477	87.1	0
52	1477	87.2	0
52	1477	87.3	0
52	1477	87.4	0
52	1477	87.5	0
52	1477	87.6	0
52	1477	87.7	0
52	1477	87.8	0
52	1477	87.9	0
52	1477	88	0
52	1477	88.1	0
52	1477	88.2	0
52	1477	88.3	0
52	1477	88.4	0
52	1477	88.5	0
52	1477	88.6	0
52	1477	88.7	0
52	1477	88.8	0
52	1477	88.9	0
52	1477	89	0
52	1477	89.1	0
52	1477	89.2	0
52	1477	89.3	0
52	1477	89.4	0
52	1477	89.5	0
52	1477	89.6	0
52	1477	89.7	0
52	1477	89.8	0
52	1477	89.9	0
52	1477	90	0
52	1477	90.1	0
52	1477	90.2	0
52	1477	90.3	0
52	1477	90.4	0
52	1477	90.5	0
52	1477	90.6	0
52	1477	90.7	0
52	1477	90.8	0
52	1477	90.9	0
52	1477	91	0
52	1477	91.1	0
52	1477	91.2	0
52	1477	91.3	0
52	1477	91.4	0
52	1477	91.5	0
52	1477	91.6	0
52	1477	91.7	0
52	1477	91.8	0
52	1477	91.9	0
52	1477	92	0
52	1477	92.1	0
52	1477	92.2	0
52	1477	92.3	0
52	1477	92.4	0
52	1477	92.5	0
52	1477	92.6	0
52	1477	92.7	0
52	1477	92.8	0
52	1477	92.9	0
52	1477	93	0
52	1477	93.1	0
52	1477	93.2	0
52	1477	93.3	0
52	1477	93.4	0
52	1477	93.5	0
52	1477	93.6	0
52	1477	93.7	0
52	1477	93.8	0
52	1477	93.9	0
52	1477	94	0
52	1477	94.1	0
52	1477	94.2	0
52	1477	94.3	0
52	1477	94.4	0
52	1477	94.5	0
52	1477	94.6	0
52	1477	94.7	0
52	1477	94.8	0
52	1477	94.9	0
52	1477	95	0
52	1477	95.1	0
52	1477	95.2	0
52	1477	95.3	0
52	1477	95.4	0
52	1477	95.5	0
52	1477	95.6	0
52	1477	95.7	0
52	1477	95.8	0
52	1477	95.9	0
52	1477	96	0
52	1477	96.1	0
52	1477	96.2	0
52	1477	96.3	0
52	1477	96.4	0
52	1477	96.5	0
52	1477	96.6	0
52	1477	96.7	0
52	1477	96.8	0
52	1477	96.9	0
52	1477	97	0
52	1477	97.1	0
52	1477	97.2	0
52	1477	97.3	0
52	1477	97.4	0
52	1477	97.5	0
52	1477	97.6	0
52	1477	97.7	0
52	1477	97.8	0
52	1477	97.9	0
52	1477	98	0
52	1477	98.1	0
52	1477	98.2	0
52	1477	98.3	0
52	1477	98.4	0
52	1477	98.5	0
52	1477	98.6	0
52	1477	98.7	0
52	1477	98.8	0
52	1477	98.9	0
52	1477	99	0
52	1477	99.1	0
52	1477	99.2	0
52	1477	99.3	0
52	1477	99.4	0
52	1477	99.5	0
52	1477	99.6	0
52	1477	99.7	0
52	1477	99.8	0
52	1477	99.9	0
52	1477	100	0
52	1477	100.1	0
52	1477	100.2	0
52	1477	100.3	0
52	1477	100.4	0
52	1477	100.5	0
52	1477	100.6	0
52	1477	100.7	0
52	1477	100.8	0
52	1477	100.9	0
52	1477	101	0
52	1477	101.1	0
52	1477	101.2	0
52	1477	101.3	0
52	1477	101.4	0
52	1477	101.5	0
52	1477	101.6	0
52	1477	101.7	0
52	1477	101.8	0
52	1477	101.9	0
52	1477	102	0
52	1477	102.1	0
52	1477	102.2	0
52	1477	102.3	0
52	1477	102.4	0
52	1477	102.5	0
52	1477	102.6	0
52	1477	102.7	0
52	1477	102.8	0
52	1477	102.9	0
52	1477	103	0
52	1477	103.1	0
52	1477	103.2	0
52	1477	103.3	0
52	1477	103.4	0
52	1477	103.5	0
52	1477	103.6	0
52	1477	103.7	0
52	1477	103.8	0
52	1477	103.9	0
52	1477	104	0
52	1477	104.1	0
52	1477	104.2	0
52	1477	104.3	0
52	1477	104.4	0
52	1477	104.5	0
52	1477	104.6	0
52	1477	104.7	0
52	1477	104.8	0
52	1477	104.9	0
52	1477	105	0
52	1477	105.1	0
52	1477	105.2	0
52	1477	105.3	0
52	1477	105.4	0
52	1477	105.5	0
52	1477	105.6	0
52	1477	105.7	0
52	1477	105.8	0
52	1477	105.9	0
52	1477	106	0
52	1477	106.1	0
52	1477	106.2	0
52	1477	106.3	0
52	1477	106.4	0
52	1477	106.5	0
52	1477	106.6	0
52	1477	106.7	0
52	1477	106.8	0
52	1477	106.9	0
52	1477	107	0
52	1477	107.1	0
52	1477	107.2	0
52	1477	107.3	0
52	1477	107.4	0
52	1477	107.5	0
52	1477	107.6	0
52	1477	107.7	0
52	1477	107.8	0
52	1477	107.9	0
52	1477	108	0
52	1477	108.1	0
52	1477	108.2	0
52	1477	108.3	0
52	1477	108.4	0
52	1477	108.5	0
52	1477	108.6	0
52	1477	108.7	0
52	1477	108.8	0
52	1477	108.9	0
52	1477	109	0
52	1477	109.1	0
52	1477	109.2	0
52	1477	109.3	0
52	1477	109.4	0
52	1477	109.5	0
52	1477	109.6	0
52	1477	109.7	0
52	1477	109.8	0
52	1477	109.9	0
52	1477	110	0
52	1477	110.1	0
52	1477	110.2	0
52	1477	110.3	0
52	1477	110.4	0
52	1477	110.5	0
52	1477	110.6	0
52	1477	110.7	0
52	1477	110.8	0
52	1477	110.9	0
52	1477	111	0
52	1477	111.1	0
52	1477	111.2	0
52	1477	111.3	0
52	1477	111.4	0
52	1477	111.5	0
52	1477	111.6	0
52	1477	111.7	0
52	1477	111.8	0
52	1477	111.9	0
52	1477	112	0
52	1477	112.1	0
52	1477	112.2	0
52	1477	112.3	0
52	1477	112.4	0
52	1477	112.5	0
52	1477	112.6	0
52	1477	112.7	0
52	1477	112.8	0
52	1477	112.9	0
52	1477	113	0
52	1477	113.1	0
52	1477	113.2	0
52	1477	113.3	0
52	1477	113.4	0
52	1477	113.5	0
52	1477	113.6	0
52	1477	113.7	0
52	1477	113.8	0
52	1477	113.9	0
52	1477	114	0
52	1477	114.1	0
52	1477	114.2	0
52	1477	114.3	0
52	1477	114.4	0
52	1477	114.5	0
52	1477	114.6	0
52	1477	114.7	0
52	1477	114.8	0
52	1477	114.9	0
52	1477	115	0
52	1477	115.1	0
52	1477	115.2	0
52	1477	115.3	0
52	1477	115.4	0
52	1477	115.5	0
52	1477	115.6	0
52	1477	115.7	0
52	1477	115.8	0
52	1477	115.9	0
52	1477	116	0
52	1477	116.1	0
52	1477	116.2	0
52	1477	116.3	0
52	1477	116.4	0
52	1477	116.5	0
52	1477	116.6	0
52	1477	116.7	0
52	1477	116.8	0
52	1477	116.9	0
52	1477	117	0
52	1477	117.1	0
52	1477	117.2	0
52	1477	117.3	0
52	1477	117.4	0
52	1477	117.5	0
52	1477	117.6	0
52	1477	117.7	0
52	1477	117.8	0
52	1477	117.9	0
52	1477	118	0
52	1477	118.1	0
52	1477	118.2	0
52	1477	118.3	0
52	1477	118.4	0
52	1477	118.5	0
52	1477	118.6	0
52	1477	118.7	0
52	1477	118.8	0
52	1477	118.9	0
52	1477	119	0
52	1477	119.1	0
52	1477	119.2	0
52	1477	119.3	0
52	1477	119.4	0
52	1477	119.5	0
52	1477	119.6	0
52	1477	119.7	0
52	1477	119.8	0
52	1477	119.9	0
52	1477	120	0
51	849	80.00015217892	100
51	857	80.00015217892	100
51	927	80.000375617627	100
51	961	80.000651036231	100
51	983	80.000887394061	100
51	1023	80.001123627106	100
53	849	80.00015217892	100
73	866	80.000152295394	128
74	866	80.000152295394	128
62	859	80.000152295394	158
62	911	80.000375501055	158
62	951	80.00065091979	158
62	985	80.000887510535	158
62	1047	80.001359743677	158
147	1003	80.000971510535	158
75	869	80.000152295394	130
66	859	80.000152295394	130
66	911	80.000375501055	130
66	951	80.00065091979	130
66	985	80.000887510535	130
66	1047	80.001359743677	130
146	1003	80.000971510535	12000000
148	1003	80.000971510535	1
148	1010	80.001123510535	0
65	859	80.000152295394	158
65	911	80.000375501055	158
65	951	80.00065091979	158
65	985	80.000887510535	158
65	1047	80.001359743677	158
64	859	80.000152295394	158
64	911	80.000375501055	158
64	951	80.00065091979	158
64	985	80.000887510535	158
64	1047	80.001359743677	158
63	859	80.000152295394	158
63	911	80.000375501055	158
63	951	80.00065091979	158
63	985	80.000887510535	158
63	1047	80.001359743677	158
152	1010	80.001123510535	158
151	1010	80.001123510535	158
150	1010	80.001123510535	158
144	1003	80.000971510535	0.000819215141
143	1003	80.000971510535	158
76	869	80.000152295394	158
77	869	80.000152295394	1
77	1003	80.000971510535	0
153	1010	80.001123510535	0.000152
145	1003	80.000971510535	1
145	1010	80.001123510535	0
79	869	80.000152295394	1
79	904	80.000223501055	0
79	910	80.000375501055	1
79	939	80.00049891979	0
79	950	80.00065091979	1
79	973	80.000735510535	0
79	984	80.000887510535	1
79	1002	80.000971510535	0
78	869	80.000152295394	10
11	108	10.1	15
9	108	10.1	3
8	108	10.1	0
8	108	10.1	0
8	108	10.1	2
8	1004	80.000971510535	3
8	1011	80.001123510535	2
10	108	10.1	1
10	839	80.000000295394	3
10	858	80.000152295394	1
10	904	80.000223501055	3
10	910	80.000375501055	1
10	939	80.00049891979	3
10	950	80.00065091979	1
10	973	80.000735510535	3
10	984	80.000887510535	1
10	1004	80.000971510535	0
10	1011	80.001123510535	1
10	1040	80.001207743677	3
10	1046	80.001359743677	1
149	1004	80.000971510535	1
149	1005	80.000971510535	2
149	1010	80.001123510535	1
149	1011	80.001123510535	0
67	862	80.000152295394	108
67	870	80.000152295394	108
67	914	80.000375501055	108
67	954	80.00065091979	108
67	988	80.000887510535	108
67	1050	80.001359743677	108
72	864	80.000152295394	108
68	862	80.000152295394	1
68	870	80.000152295394	2
68	914	80.000375501055	3
68	954	80.00065091979	4
68	988	80.000887510535	5
68	1050	80.001359743677	6
70	863	0.1	0
70	863	0.2	0
70	863	0.3	0
70	863	0.4	0
70	863	0.5	0
70	863	0.6	0
70	863	0.7	0
70	863	0.8	0
70	863	0.9	0
70	863	1	0
70	863	1.1	0
70	863	1.2	0
70	863	1.3	0
70	863	1.4	0
70	863	1.5	0
70	863	1.6	0
70	863	1.7	0
70	863	1.8	0
70	863	1.9	0
70	863	2	0
70	863	2.1	0
70	863	2.2	0
70	863	2.3	0
70	863	2.4	0
70	863	2.5	0
70	863	2.6	0
70	863	2.7	0
70	863	2.8	0
70	863	2.9	0
70	863	3	0
70	863	3.1	0
70	863	3.2	0
70	863	3.3	0
70	863	3.4	0
70	863	3.5	0
70	863	3.6	0
70	863	3.7	0
70	863	3.8	0
70	863	3.9	0
70	863	4	0
70	863	4.1	0
70	863	4.2	0
70	863	4.3	0
70	863	4.4	0
70	863	4.5	0
70	863	4.6	0
70	863	4.7	0
70	863	4.8	0
70	863	4.9	0
70	863	5	0
70	863	5.1	0
70	863	5.2	0
70	863	5.3	0
70	863	5.4	0
70	863	5.5	0
70	863	5.6	0
70	863	5.7	0
70	863	5.8	0
70	863	5.9	0
70	863	6	0
70	863	6.1	0
70	863	6.2	0
70	863	6.3	0
70	863	6.4	0
70	863	6.5	0
70	863	6.6	0
70	863	6.7	0
70	863	6.8	0
70	863	6.9	0
70	863	7	0
70	863	7.1	0
70	863	7.2	0
70	863	7.3	0
70	863	7.4	0
70	863	7.5	0
70	863	7.6	0
70	863	7.7	0
70	863	7.8	0
70	863	7.9	0
70	863	8	0
70	863	8.1	0
70	863	8.2	0
70	863	8.3	0
70	863	8.4	0
70	863	8.5	0
70	863	8.6	0
70	863	8.7	0
70	863	8.8	0
70	863	8.9	0
70	863	9	0
70	863	9.1	0
70	863	9.2	0
70	863	9.3	0
70	863	9.4	0
70	863	9.5	0
70	863	9.6	0
70	863	9.7	0
70	863	9.8	0
70	863	9.9	0
70	863	10	0
70	863	10.1	0
70	863	10.2	0
70	863	10.3	0
70	863	10.4	0
70	863	10.5	0
70	863	10.6	0
70	863	10.7	0
70	863	10.8	0
70	863	10.9	0
70	863	11	0
70	863	11.1	0
70	863	11.2	0
70	863	11.3	0
70	863	11.4	0
70	863	11.5	0
70	863	11.6	0
70	863	11.7	0
70	863	11.8	0
70	863	11.9	0
70	863	12	0
70	863	12.1	0
70	863	12.2	0
70	863	12.3	0
70	863	12.4	0
70	863	12.5	0
70	863	12.6	0
70	863	12.7	0
70	863	12.8	0
70	863	12.9	0
70	863	13	0
70	863	13.1	0
70	863	13.2	0
70	863	13.3	0
70	863	13.4	0
70	863	13.5	0
70	863	13.6	0
70	863	13.7	0
70	863	13.8	0
70	863	13.9	0
70	863	14	0
70	863	14.1	0
70	863	14.2	0
70	863	14.3	0
70	863	14.4	0
70	863	14.5	0
70	863	14.6	0
70	863	14.7	0
70	863	14.8	0
70	863	14.9	0
70	863	15	0
70	863	15.1	0
70	863	15.2	0
70	863	15.3	0
70	863	15.4	0
70	863	15.5	0
70	863	15.6	0
70	863	15.7	0
70	863	15.8	0
70	863	15.9	0
70	863	16	0
70	863	16.1	0
70	863	16.2	0
70	863	16.3	0
70	863	16.4	0
70	863	16.5	0
70	863	16.6	0
70	863	16.7	0
70	863	16.8	0
70	863	16.9	0
70	863	17	0
70	863	17.1	0
70	863	17.2	0
70	863	17.3	0
70	863	17.4	0
70	863	17.5	0
70	863	17.6	0
70	863	17.7	0
70	863	17.8	0
70	863	17.9	0
70	863	18	0
70	863	18.1	0
70	863	18.2	0
70	863	18.3	0
70	863	18.4	0
70	863	18.5	0
70	863	18.6	0
70	863	18.7	0
70	863	18.8	0
70	863	18.9	0
70	863	19	0
70	863	19.1	0
70	863	19.2	0
70	863	19.3	0
70	863	19.4	0
70	863	19.5	0
70	863	19.6	0
70	863	19.7	0
70	863	19.8	0
70	863	19.9	0
70	863	20	0
70	863	20.1	0
70	863	20.2	0
70	863	20.3	0
70	863	20.4	0
70	863	20.5	0
70	863	20.6	0
70	863	20.7	0
70	863	20.8	0
70	863	20.9	0
70	863	21	0
70	863	21.1	0
70	863	21.2	0
70	863	21.3	0
70	863	21.4	0
70	863	21.5	0
70	863	21.6	0
70	863	21.7	0
70	863	21.8	0
70	863	21.9	0
70	863	22	0
70	863	22.1	0
70	863	22.2	0
70	863	22.3	0
70	863	22.4	0
70	863	22.5	0
70	863	22.6	0
70	863	22.7	0
70	863	22.8	0
70	863	22.9	0
70	863	23	0
70	863	23.1	0
70	863	23.2	0
70	863	23.3	0
70	863	23.4	0
70	863	23.5	0
70	863	23.6	0
70	863	23.7	0
70	863	23.8	0
70	863	23.9	0
70	863	24	0
70	863	24.1	0
70	863	24.2	0
70	863	24.3	0
70	863	24.4	0
70	863	24.5	0
70	863	24.6	0
70	863	24.7	0
70	863	24.8	0
70	863	24.9	0
70	863	25	0
70	863	25.1	0
70	863	25.2	0
70	863	25.3	0
70	863	25.4	0
70	863	25.5	0
70	863	25.6	0
70	863	25.7	0
70	863	25.8	0
70	863	25.9	0
70	863	26	0
70	863	26.1	0
70	863	26.2	0
70	863	26.3	0
70	863	26.4	0
70	863	26.5	0
70	863	26.6	0
70	863	26.7	0
70	863	26.8	0
70	863	26.9	0
70	863	27	0
70	863	27.1	0
70	863	27.2	0
70	863	27.3	0
70	863	27.4	0
70	863	27.5	0
70	863	27.6	0
70	863	27.7	0
70	863	27.8	0
70	863	27.9	0
70	863	28	0
70	863	28.1	0
70	863	28.2	0
70	863	28.3	0
70	863	28.4	0
70	863	28.5	0
70	863	28.6	0
70	863	28.7	0
70	863	28.8	0
70	863	28.9	0
70	863	29	0
70	863	29.1	0
70	863	29.2	0
70	863	29.3	0
70	863	29.4	0
70	863	29.5	0
70	863	29.6	0
70	863	29.7	0
70	863	29.8	0
70	863	29.9	0
70	863	30	0
70	863	30.1	0
70	863	30.2	0
70	863	30.3	0
70	863	30.4	0
70	863	30.5	0
70	863	30.6	0
70	863	30.7	0
70	863	30.8	0
70	863	30.9	0
70	863	31	0
70	863	31.1	0
70	863	31.2	0
70	863	31.3	0
70	863	31.4	0
70	863	31.5	0
70	863	31.6	0
70	863	31.7	0
70	863	31.8	0
70	863	31.9	0
70	863	32	0
70	863	32.1	0
70	863	32.2	0
70	863	32.3	0
70	863	32.4	0
70	863	32.5	0
70	863	32.6	0
70	863	32.7	0
70	863	32.8	0
70	863	32.9	0
70	863	33	0
70	863	33.1	0
70	863	33.2	0
70	863	33.3	0
70	863	33.4	0
70	863	33.5	0
70	863	33.6	0
70	863	33.7	0
70	863	33.8	0
70	863	33.9	0
70	863	34	0
70	863	34.1	0
70	863	34.2	0
70	863	34.3	0
70	863	34.4	0
70	863	34.5	0
70	863	34.6	0
70	863	34.7	0
70	863	34.8	0
70	863	34.9	0
70	863	35	0
70	863	35.1	0
70	863	35.2	0
70	863	35.3	0
70	863	35.4	0
70	863	35.5	0
70	863	35.6	0
70	863	35.7	0
70	863	35.8	0
70	863	35.9	0
70	863	36	0
70	863	36.1	0
70	863	36.2	0
70	863	36.3	0
70	863	36.4	0
70	863	36.5	0
70	863	36.6	0
70	863	36.7	0
70	863	36.8	0
70	863	36.9	0
70	863	37	0
70	863	37.1	0
70	863	37.2	0
70	863	37.3	0
70	863	37.4	0
70	863	37.5	0
70	863	37.6	0
70	863	37.7	0
70	863	37.8	0
70	863	37.9	0
70	863	38	0
70	863	38.1	0
70	863	38.2	0
70	863	38.3	0
70	863	38.4	0
70	863	38.5	0
70	863	38.6	0
70	863	38.7	0
70	863	38.8	0
70	863	38.9	0
70	863	39	0
70	863	39.1	0
70	863	39.2	0
70	863	39.3	0
70	863	39.4	0
70	863	39.5	0
70	863	39.6	0
70	863	39.7	0
70	863	39.8	0
70	863	39.9	0
70	863	40	0
70	863	40.1	0
70	863	40.2	0
70	863	40.3	0
70	863	40.4	0
70	863	40.5	0
70	863	40.6	0
70	863	40.7	0
70	863	40.8	0
70	863	40.9	0
70	863	41	0
70	863	41.1	0
70	863	41.2	0
70	863	41.3	0
70	863	41.4	0
70	863	41.5	0
70	863	41.6	0
70	863	41.7	0
70	863	41.8	0
70	863	41.9	0
70	863	42	0
70	863	42.1	0
70	863	42.2	0
70	863	42.3	0
70	863	42.4	0
[...]
100	1065	80.001360055651	158
99	887	80.000152607455	158
99	917	80.000375607686	158
99	997	80.000887822596	158
99	1031	80.001123822639	158
99	1065	80.001360055651	158
141	942	80.000650607686	158
140	942	80.000650607686	158
139	942	80.000650607686	158
133	935	80.000498607686	0.000346000231
132	935	80.000498607686	158
112	897	80.000152607455	158
113	897	80.000152607455	1
113	935	80.000498607686	0
142	942	80.000650607686	0.000152
134	935	80.000498607686	1
134	942	80.000650607686	0
115	897	80.000152607455	1
115	905	80.000223607686	0
115	916	80.000375607686	1
115	934	80.000498607686	0
114	897	80.000152607455	6
19	214	20.1	15
17	214	20.1	3
16	214	20.1	0
16	214	20.1	0
16	214	20.1	2
16	936	80.000498607686	3
16	943	80.000650607686	2
18	214	20.1	1
18	841	80.000000607455	3
18	886	80.000152607455	1
18	905	80.000223607686	3
18	916	80.000375607686	1
18	936	80.000498607686	0
18	943	80.000650607686	1
18	975	80.000735822596	3
18	996	80.000887822596	1
18	1009	80.000971822639	3
18	1030	80.001123822639	1
18	1043	80.001208055651	3
18	1064	80.001360055651	1
138	936	80.000498607686	1
138	937	80.000498607686	2
138	942	80.000650607686	1
138	943	80.000650607686	0
103	890	80.000152607455	108
103	898	80.000152607455	108
103	920	80.000375607686	108
103	1000	80.000887822596	108
103	1034	80.001123822639	108
103	1068	80.001360055651	108
108	892	80.000152607455	108
104	890	80.000152607455	1
104	898	80.000152607455	2
104	920	80.000375607686	3
104	1000	80.000887822596	4
104	1034	80.001123822639	5
104	1068	80.001360055651	6
106	891	0.1	0
106	891	0.2	0
106	891	0.3	0
106	891	0.4	0
106	891	0.5	0
106	891	0.6	0
106	891	0.7	0
106	891	0.8	0
106	891	0.9	0
106	891	1	0
106	891	1.1	0
106	891	1.2	0
106	891	1.3	0
106	891	1.4	0
106	891	1.5	0
106	891	1.6	0
106	891	1.7	0
106	891	1.8	0
106	891	1.9	0
106	891	2	0
106	891	2.1	0
106	891	2.2	0
106	891	2.3	0
106	891	2.4	0
106	891	2.5	0
106	891	2.6	0
106	891	2.7	0
106	891	2.8	0
106	891	2.9	0
106	891	3	0
106	891	3.1	0
106	891	3.2	0
106	891	3.3	0
106	891	3.4	0
106	891	3.5	0
106	891	3.6	0
106	891	3.7	0
106	891	3.8	0
106	891	3.9	0
106	891	4	0
106	891	4.1	0
106	891	4.2	0
106	891	4.3	0
106	891	4.4	0
106	891	4.5	0
106	891	4.6	0
106	891	4.7	0
106	891	4.8	0
106	891	4.9	0
106	891	5	0
106	891	5.1	0
106	891	5.2	0
106	891	5.3	0
106	891	5.4	0
106	891	5.5	0
106	891	5.6	0
106	891	5.7	0
106	891	5.8	0
106	891	5.9	0
106	891	6	0
106	891	6.1	0
106	891	6.2	0
106	891	6.3	0
106	891	6.4	0
106	891	6.5	0
106	891	6.6	0
106	891	6.7	0
106	891	6.8	0
106	891	6.9	0
106	891	7	0
106	891	7.1	0
106	891	7.2	0
106	891	7.3	0
106	891	7.4	0
106	891	7.5	0
106	891	7.6	0
106	891	7.7	0
106	891	7.8	0
106	891	7.9	0
106	891	8	0
106	891	8.1	0
106	891	8.2	0
106	891	8.3	0
106	891	8.4	0
106	891	8.5	0
106	891	8.6	0
106	891	8.7	0
106	891	8.8	0
106	891	8.9	0
106	891	9	0
106	891	9.1	0
106	891	9.2	0
106	891	9.3	0
106	891	9.4	0
106	891	9.5	0
106	891	9.6	0
106	891	9.7	0
106	891	9.8	0
106	891	9.9	0
106	891	10	0
106	891	10.1	0
106	891	10.2	0
106	891	10.3	0
106	891	10.4	0
106	891	10.5	0
106	891	10.6	0
106	891	10.7	0
106	891	10.8	0
106	891	10.9	0
106	891	11	0
106	891	11.1	0
106	891	11.2	0
106	891	11.3	0
106	891	11.4	0
106	891	11.5	0
106	891	11.6	0
106	891	11.7	0
106	891	11.8	0
106	891	11.9	0
106	891	12	0
106	891	12.1	0
106	891	12.2	0
106	891	12.3	0
106	891	12.4	0
106	891	12.5	0
106	891	12.6	0
106	891	12.7	0
106	891	12.8	0
106	891	12.9	0
106	891	13	0
106	891	13.1	0
106	891	13.2	0
106	891	13.3	0
106	891	13.4	0
106	891	13.5	0
106	891	13.6	0
106	891	13.7	0
106	891	13.8	0
106	891	13.9	0
106	891	14	0
106	891	14.1	0
106	891	14.2	0
106	891	14.3	0
106	891	14.4	0
106	891	14.5	0
106	891	14.6	0
106	891	14.7	0
106	891	14.8	0
106	891	14.9	0
106	891	15	0
106	891	15.1	0
106	891	15.2	0
106	891	15.3	0
106	891	15.4	0
106	891	15.5	0
106	891	15.6	0
106	891	15.7	0
106	891	15.8	0
106	891	15.9	0
106	891	16	0
106	891	16.1	0
106	891	16.2	0
106	891	16.3	0
106	891	16.4	0
106	891	16.5	0
106	891	16.6	0
106	891	16.7	0
106	891	16.8	0
106	891	16.9	0
106	891	17	0
106	891	17.1	0
106	891	17.2	0
106	891	17.3	0
106	891	17.4	0
106	891	17.5	0
106	891	17.6	0
106	891	17.7	0
106	891	17.8	0
106	891	17.9	0
106	891	18	0
106	891	18.1	0
106	891	18.2	0
106	891	18.3	0
106	891	18.4	0
106	891	18.5	0
106	891	18.6	0
106	891	18.7	0
106	891	18.8	0
106	891	18.9	0
106	891	19	0
106	891	19.1	0
106	891	19.2	0
106	891	19.3	0
106	891	19.4	0
106	891	19.5	0
106	891	19.6	0
106	891	19.7	0
106	891	19.8	0
106	891	19.9	0
106	891	20	0
106	891	20.1	0
106	891	20.2	0
106	891	20.3	0
106	891	20.4	0
106	891	20.5	0
106	891	20.6	0
106	891	20.7	0
106	891	20.8	0
106	891	20.9	0
106	891	21	0
106	891	21.1	0
106	891	21.2	0
106	891	21.3	0
106	891	21.4	0
106	891	21.5	0
106	891	21.6	0
106	891	21.7	0
106	891	21.8	0
106	891	21.9	0
106	891	22	0
106	891	22.1	0
106	891	22.2	0
106	891	22.3	0
106	891	22.4	0
106	891	22.5	0
106	891	22.6	0
106	891	22.7	0
106	891	22.8	0
106	891	22.9	0
106	891	23	0
106	891	23.1	0
106	891	23.2	0
106	891	23.3	0
106	891	23.4	0
106	891	23.5	0
106	891	23.6	0
106	891	23.7	0
106	891	23.8	0
106	891	23.9	0
106	891	24	0
106	891	24.1	0
106	891	24.2	0
106	891	24.3	0
106	891	24.4	0
106	891	24.5	0
106	891	24.6	0
106	891	24.7	0
106	891	24.8	0
106	891	24.9	0
106	891	25	0
106	891	25.1	0
106	891	25.2	0
106	891	25.3	0
106	891	25.4	0
106	891	25.5	0
106	891	25.6	0
106	891	25.7	0
106	891	25.8	0
106	891	25.9	0
106	891	26	0
106	891	26.1	0
106	891	26.2	0
106	891	26.3	0
106	891	26.4	0
106	891	26.5	0
106	891	26.6	0
106	891	26.7	0
106	891	26.8	0
106	891	26.9	0
106	891	27	0
106	891	27.1	0
106	891	27.2	0
106	891	27.3	0
106	891	27.4	0
106	891	27.5	0
106	891	27.6	0
106	891	27.7	0
106	891	27.8	0
106	891	27.9	0
106	891	28	0
106	891	28.1	0
106	891	28.2	0
106	891	28.3	0
106	891	28.4	0
106	891	28.5	0
106	891	28.6	0
106	891	28.7	0
106	891	28.8	0
106	891	28.9	0
106	891	29	0
106	891	29.1	0
106	891	29.2	0
106	891	29.3	0
106	891	29.4	0
106	891	29.5	0
106	891	29.6	0
106	891	29.7	0
106	891	29.8	0
106	891	29.9	0
106	891	30	0
106	891	30.1	0
106	891	30.2	0
106	891	30.3	0
106	891	30.4	0
106	891	30.5	0
106	891	30.6	0
106	891	30.7	0
106	891	30.8	0
106	891	30.9	0
106	891	31	0
106	891	31.1	0
106	891	31.2	0
106	891	31.3	0
106	891	31.4	0
106	891	31.5	0
106	891	31.6	0
106	891	31.7	0
106	891	31.8	0
106	891	31.9	0
106	891	32	0
106	891	32.1	0
106	891	32.2	0
106	891	32.3	0
106	891	32.4	0
106	891	32.5	0
106	891	32.6	0
106	891	32.7	0
106	891	32.8	0
106	891	32.9	0
106	891	33	0
106	891	33.1	0
106	891	33.2	0
106	891	33.3	0
106	891	33.4	0
106	891	33.5	0
106	891	33.6	0
106	891	33.7	0
106	891	33.8	0
106	891	33.9	0
106	891	34	0
106	891	34.1	0
106	891	34.2	0
106	891	34.3	0
106	891	34.4	0
106	891	34.5	0
106	891	34.6	0
106	891	34.7	0
106	891	34.8	0
106	891	34.9	0
106	891	35	0
106	891	35.1	0
106	891	35.2	0
106	891	35.3	0
106	891	35.4	0
106	891	35.5	0
106	891	35.6	0
106	891	35.7	0
106	891	35.8	0
106	891	35.9	0
106	891	36	0
106	891	36.1	0
106	891	36.2	0
106	891	36.3	0
106	891	36.4	0
106	891	36.5	0
106	891	36.6	0
106	891	36.7	0
106	891	36.8	0
106	891	36.9	0
106	891	37	0
106	891	37.1	0
106	891	37.2	0
106	891	37.3	0
106	891	37.4	0
106	891	37.5	0
106	891	37.6	0
106	891	37.7	0
106	891	37.8	0
106	891	37.9	0
106	891	38	0
106	891	38.1	0
106	891	38.2	0
106	891	38.3	0
106	891	38.4	0
106	891	38.5	0
106	891	38.6	0
106	891	38.7	0
106	891	38.8	0
106	891	38.9	0
106	891	39	0
106	891	39.1	0
106	891	39.2	0
106	891	39.3	0
106	891	39.4	0
106	891	39.5	0
106	891	39.6	0
106	891	39.7	0
106	891	39.8	0
106	891	39.9	0
106	891	40	0
106	891	40.1	0
106	891	40.2	0
106	891	40.3	0
106	891	40.4	0
106	891	40.5	0
106	891	40.6	0
106	891	40.7	0
106	891	40.8	0
106	891	40.9	0
106	891	41	0
106	891	41.1	0
106	891	41.2	0
106	891	41.3	0
106	891	41.4	0
106	891	41.5	0
106	891	41.6	0
106	891	41.7	0
106	891	41.8	0
106	891	41.9	0
106	891	42	0
106	891	42.1	0
106	891	42.2	0
106	891	42.3	0
106	891	42.4	0
106	891	42.5	0
106	891	42.6	0
106	891	42.7	0
106	891	42.8	0
106	891	42.9	0
106	891	43	0
106	891	43.1	0
106	891	43.2	0
106	891	43.3	0
106	891	43.4	0
106	891	43.5	0
106	891	43.6	0
106	891	43.7	0
106	891	43.8	0
106	891	43.9	0
106	891	44	0
106	891	44.1	0
106	891	44.2	0
106	891	44.3	0
106	891	44.4	0
106	891	44.5	0
106	891	44.6	0
106	891	44.7	0
106	891	44.8	0
106	891	44.9	0
106	891	45	0
106	891	45.1	0
106	891	45.2	0
106	891	45.3	0
106	891	45.4	0
106	891	45.5	0
106	891	45.6	0
106	891	45.7	0
106	891	45.8	0
106	891	45.9	0
106	891	46	0
106	891	46.1	0
106	891	46.2	0
106	891	46.3	0
106	891	46.4	0
106	891	46.5	0
106	891	46.6	0
106	891	46.7	0
106	891	46.8	0
106	891	46.9	0
106	891	47	0
106	891	47.1	0
106	891	47.2	0
106	891	47.3	0
106	891	47.4	0
106	891	47.5	0
106	891	47.6	0
106	891	47.7	0
106	891	47.8	0
106	891	47.9	0
106	891	48	0
106	891	48.1	0
106	891	48.2	0
106	891	48.3	0
106	891	48.4	0
106	891	48.5	0
106	891	48.6	0
106	891	48.7	0
106	891	48.8	0
106	891	48.9	0
106	891	49	0
106	891	49.1	0
106	891	49.2	0
106	891	49.3	0
106	891	49.4	0
106	891	49.5	0
106	891	49.6	0
106	891	49.7	0
106	891	49.8	0
106	891	49.9	0
106	891	50	0
106	891	50.1	0
106	891	50.2	0
106	891	50.3	0
106	891	50.4	0
106	891	50.5	0
106	891	50.6	0
106	891	50.7	0
106	891	50.8	0
106	891	50.9	0
106	891	51	0
106	891	51.1	0
106	891	51.2	0
106	891	51.3	0
106	891	51.4	0
106	891	51.5	0
106	891	51.6	0
106	891	51.7	0
106	891	51.8	0
106	891	51.9	0
106	891	52	0
106	891	52.1	0
106	891	52.2	0
106	891	52.3	0
106	891	52.4	0
106	891	52.5	0
106	891	52.6	0
106	891	52.7	0
106	891	52.8	0
106	891	52.9	0
106	891	53	0
106	891	53.1	0
106	891	53.2	0
106	891	53.3	0
106	891	53.4	0
106	891	53.5	0
106	891	53.6	0
106	891	53.7	0
106	891	53.8	0
106	891	53.9	0
106	891	54	0
106	891	54.1	0
106	891	54.2	0
106	891	54.3	0
106	891	54.4	0
106	891	54.5	0
106	891	54.6	0
106	891	54.7	0
106	891	54.8	0
106	891	54.9	0
106	891	55	0
106	891	55.1	0
106	891	55.2	0
106	891	55.3	0
106	891	55.4	0
106	891	55.5	0
106	891	55.6	0
106	891	55.7	0
106	891	55.8	0
106	891	55.9	0
106	891	56	0
106	891	56.1	0
106	891	56.2	0
106	891	56.3	0
106	891	56.4	0
106	891	56.5	0
106	891	56.6	0
106	891	56.7	0
106	891	56.8	0
106	891	56.9	0
106	891	57	0
106	891	57.1	0
106	891	57.2	0
106	891	57.3	0
106	891	57.4	0
106	891	57.5	0
106	891	57.6	0
106	891	57.7	0
106	891	57.8	0
106	891	57.9	0
106	891	58	0
106	891	58.1	0
106	891	58.2	0
106	891	58.3	0
106	891	58.4	0
106	891	58.5	0
106	891	58.6	0
106	891	58.7	0
106	891	58.8	0
106	891	58.9	0
106	891	59	0
106	891	59.1	0
106	891	59.2	0
106	891	59.3	0
106	891	59.4	0
106	891	59.5	0
106	891	59.6	0
106	891	59.7	0
106	891	59.8	0
106	891	59.9	0
106	891	60	0
106	891	60.1	0
106	891	60.2	0
106	891	60.3	0
106	891	60.4	0
106	891	60.5	0
106	891	60.6	0
106	891	60.7	0
106	891	60.8	0
106	891	60.9	0
106	891	61	0
106	891	61.1	0
106	891	61.2	0
106	891	61.3	0
106	891	61.4	0
106	891	61.5	0
106	891	61.6	0
106	891	61.7	0
106	891	61.8	0
106	891	61.9	0
106	891	62	0
106	891	62.1	0
106	891	62.2	0
106	891	62.3	0
106	891	62.4	0
106	891	62.5	0
106	891	62.6	0
106	891	62.7	0
106	891	62.8	0
106	891	62.9	0
106	891	63	0
106	891	63.1	0
106	891	63.2	0
106	891	63.3	0
106	891	63.4	0
106	891	63.5	0
106	891	63.6	0
106	891	63.7	0
106	891	63.8	0
106	891	63.9	0
106	891	64	0
106	891	64.1	0
106	891	64.2	0
106	891	64.3	0
106	891	64.4	0
106	891	64.5	0
106	891	64.6	0
106	891	64.7	0
106	891	64.8	0
106	891	64.9	0
106	891	65	0
106	891	65.1	0
106	891	65.2	0
106	891	65.3	0
106	891	65.4	0
106	891	65.5	0
106	891	65.6	0
106	891	65.7	0
106	891	65.8	0
106	891	65.9	0
106	891	66	0
106	891	66.1	0
106	891	66.2	0
106	891	66.3	0
106	891	66.4	0
106	891	66.5	0
106	891	66.6	0
106	891	66.7	0
106	891	66.8	0
106	891	66.9	0
106	891	67	0
106	891	67.1	0
106	891	67.2	0
106	891	67.3	0
106	891	67.4	0
106	891	67.5	0
106	891	67.6	0
106	891	67.7	0
106	891	67.8	0
106	891	67.9	0
106	891	68	0
106	891	68.1	0
106	891	68.2	0
106	891	68.3	0
106	891	68.4	0
106	891	68.5	0
106	891	68.6	0
106	891	68.7	0
106	891	68.8	0
106	891	68.9	0
106	891	69	0
106	891	69.1	0
106	891	69.2	0
106	891	69.3	0
106	891	69.4	0
106	891	69.5	0
106	891	69.6	0
106	891	69.7	0
106	891	69.8	0
106	891	69.9	0
106	891	70	0
106	891	70.1	0
106	891	70.2	0
106	891	70.3	0
106	891	70.4	0
106	891	70.5	0
106	891	70.6	0
106	891	70.7	0
106	891	70.8	0
106	891	70.9	0
106	891	71	0
106	891	71.1	0
106	891	71.2	0
106	891	71.3	0
106	891	71.4	0
106	891	71.5	0
106	891	71.6	0
106	891	71.7	0
106	891	71.8	0
106	891	71.9	0
106	891	72	0
106	891	72.1	0
106	891	72.2	0
106	891	72.3	0
106	891	72.4	0
106	891	72.5	0
106	891	72.6	0
106	891	72.7	0
106	891	72.8	0
106	891	72.9	0
106	891	73	0
106	891	73.1	0
106	891	73.2	0
106	891	73.3	0
106	891	73.4	0
106	891	73.5	0
106	891	73.6	0
106	891	73.7	0
106	891	73.8	0
106	891	73.9	0
106	891	74	0
106	891	74.1	0
106	891	74.2	0
106	891	74.3	0
106	891	74.4	0
106	891	74.5	0
106	891	74.6	0
106	891	74.7	0
106	891	74.8	0
106	891	74.9	0
106	891	75	0
106	891	75.1	0
106	891	75.2	0
106	891	75.3	0
106	891	75.4	0
106	891	75.5	0
106	891	75.6	0
106	891	75.7	0
106	891	75.8	0
106	891	75.9	0
106	891	76	0
106	891	76.1	0
106	891	76.2	0
106	891	76.3	0
106	891	76.4	0
106	891	76.5	0
106	891	76.6	0
106	891	76.7	0
106	891	76.8	0
106	891	76.9	0
106	891	77	0
106	891	77.1	0
106	891	77.2	0
106	891	77.3	0
106	891	77.4	0
106	891	77.5	0
106	891	77.6	0
106	891	77.7	0
106	891	77.8	0
106	891	77.9	0
106	891	78	0
106	891	78.1	0
106	891	78.2	0
106	891	78.3	0
106	891	78.4	0
106	891	78.5	0
106	891	78.6	0
106	891	78.7	0
106	891	78.8	0
106	891	78.9	0
106	891	79	0
106	891	79.1	0
106	891	79.2	0
106	891	79.3	0
106	891	79.4	0
106	891	79.5	0
106	891	79.6	0
106	891	79.7	0
106	891	79.8	0
106	891	79.9	0
106	891	80	0
106	1477	80.1	48000
106	1477	80.2	0
106	1477	80.3	0
106	1477	80.4	0
106	1477	80.5	0
106	1477	80.6	0
106	1477	80.7	0
106	1477	80.8	0
106	1477	80.9	0
106	1477	81	0
106	1477	81.1	0
106	1477	81.2	0
106	1477	81.3	0
106	1477	81.4	0
106	1477	81.5	0
106	1477	81.6	0
106	1477	81.7	0
106	1477	81.8	0
106	1477	81.9	0
106	1477	82	0
106	1477	82.1	0
106	1477	82.2	0
106	1477	82.3	0
106	1477	82.4	0
106	1477	82.5	0
106	1477	82.6	0
106	1477	82.7	0
106	1477	82.8	0
106	1477	82.9	0
106	1477	83	0
106	1477	83.1	0
106	1477	83.2	0
106	1477	83.3	0
106	1477	83.4	0
106	1477	83.5	0
106	1477	83.6	0
106	1477	83.7	0
106	1477	83.8	0
106	1477	83.9	0
106	1477	84	0
106	1477	84.1	0
106	1477	84.2	0
106	1477	84.3	0
106	1477	84.4	0
106	1477	84.5	0
106	1477	84.6	0
106	1477	84.7	0
106	1477	84.8	0
106	1477	84.9	0
106	1477	85	0
106	1477	85.1	0
106	1477	85.2	0
106	1477	85.3	0
106	1477	85.4	0
106	1477	85.5	0
106	1477	85.6	0
106	1477	85.7	0
106	1477	85.8	0
106	1477	85.9	0
106	1477	86	0
106	1477	86.1	0
106	1477	86.2	0
106	1477	86.3	0
106	1477	86.4	0
106	1477	86.5	0
106	1477	86.6	0
106	1477	86.7	0
106	1477	86.8	0
106	1477	86.9	0
106	1477	87	0
106	1477	87.1	0
106	1477	87.2	0
106	1477	87.3	0
106	1477	87.4	0
106	1477	87.5	0
106	1477	87.6	0
106	1477	87.7	0
106	1477	87.8	0
106	1477	87.9	0
106	1477	88	0
106	1477	88.1	0
106	1477	88.2	0
106	1477	88.3	0
106	1477	88.4	0
106	1477	88.5	0
106	1477	88.6	0
106	1477	88.7	0
106	1477	88.8	0
106	1477	88.9	0
106	1477	89	0
106	1477	89.1	0
106	1477	89.2	0
106	1477	89.3	0
106	1477	89.4	0
106	1477	89.5	0
106	1477	89.6	0
106	1477	89.7	0
106	1477	89.8	0
106	1477	89.9	0
106	1477	90	0
106	1477	90.1	0
106	1477	90.2	0
106	1477	90.3	0
106	1477	90.4	0
106	1477	90.5	0
106	1477	90.6	0
106	1477	90.7	0
106	1477	90.8	0
106	1477	90.9	0
106	1477	91	0
106	1477	91.1	0
106	1477	91.2	0
106	1477	91.3	0
106	1477	91.4	0
106	1477	91.5	0
106	1477	91.6	0
106	1477	91.7	0
106	1477	91.8	0
106	1477	91.9	0
106	1477	92	0
106	1477	92.1	0
106	1477	92.2	0
106	1477	92.3	0
106	1477	92.4	0
106	1477	92.5	0
106	1477	92.6	0
106	1477	92.7	0
106	1477	92.8	0
106	1477	92.9	0
106	1477	93	0
106	1477	93.1	0
106	1477	93.2	0
106	1477	93.3	0
106	1477	93.4	0
106	1477	93.5	0
106	1477	93.6	0
106	1477	93.7	0
106	1477	93.8	0
106	1477	93.9	0
106	1477	94	0
106	1477	94.1	0
106	1477	94.2	0
106	1477	94.3	0
106	1477	94.4	0
106	1477	94.5	0
106	1477	94.6	0
106	1477	94.7	0
106	1477	94.8	0
106	1477	94.9	0
106	1477	95	0
106	1477	95.1	0
106	1477	95.2	0
106	1477	95.3	0
106	1477	95.4	0
106	1477	95.5	0
106	1477	95.6	0
106	1477	95.7	0
106	1477	95.8	0
106	1477	95.9	0
106	1477	96	0
106	1477	96.1	0
106	1477	96.2	0
106	1477	96.3	0
106	1477	96.4	0
106	1477	96.5	0
106	1477	96.6	0
106	1477	96.7	0
106	1477	96.8	0
106	1477	96.9	0
106	1477	97	0
106	1477	97.1	0
106	1477	97.2	0
106	1477	97.3	0
106	1477	97.4	0
106	1477	97.5	0
106	1477	97.6	0
106	1477	97.7	0
106	1477	97.8	0
106	1477	97.9	0
106	1477	98	0
106	1477	98.1	0
106	1477	98.2	0
106	1477	98.3	0
106	1477	98.4	0
106	1477	98.5	0
106	1477	98.6	0
106	1477	98.7	0
106	1477	98.8	0
106	1477	98.9	0
106	1477	99	0
106	1477	99.1	0
106	1477	99.2	0
106	1477	99.3	0
106	1477	99.4	0
106	1477	99.5	0
106	1477	99.6	0
106	1477	99.7	0
106	1477	99.8	0
106	1477	99.9	0
106	1477	100	0
106	1477	100.1	0
106	1477	100.2	0
106	1477	100.3	0
106	1477	100.4	0
106	1477	100.5	0
106	1477	100.6	0
106	1477	100.7	0
106	1477	100.8	0
106	1477	100.9	0
106	1477	101	0
106	1477	101.1	0
106	1477	101.2	0
106	1477	101.3	0
106	1477	101.4	0
106	1477	101.5	0
106	1477	101.6	0
106	1477	101.7	0
106	1477	101.8	0
106	1477	101.9	0
106	1477	102	0
106	1477	102.1	0
106	1477	102.2	0
106	1477	102.3	0
106	1477	102.4	0
106	1477	102.5	0
106	1477	102.6	0
106	1477	102.7	0
106	1477	102.8	0
106	1477	102.9	0
106	1477	103	0
106	1477	103.1	0
106	1477	103.2	0
106	1477	103.3	0
106	1477	103.4	0
106	1477	103.5	0
106	1477	103.6	0
106	1477	103.7	0
106	1477	103.8	0
106	1477	103.9	0
106	1477	104	0
106	1477	104.1	0
106	1477	104.2	0
106	1477	104.3	0
106	1477	104.4	0
106	1477	104.5	0
106	1477	104.6	0
106	1477	104.7	0
106	1477	104.8	0
106	1477	104.9	0
106	1477	105	0
106	1477	105.1	0
106	1477	105.2	0
106	1477	105.3	0
106	1477	105.4	0
106	1477	105.5	0
106	1477	105.6	0
106	1477	105.7	0
106	1477	105.8	0
106	1477	105.9	0
106	1477	106	0
106	1477	106.1	0
106	1477	106.2	0
106	1477	106.3	0
106	1477	106.4	0
106	1477	106.5	0
106	1477	106.6	0
106	1477	106.7	0
106	1477	106.8	0
106	1477	106.9	0
106	1477	107	0
106	1477	107.1	0
106	1477	107.2	0
106	1477	107.3	0
106	1477	107.4	0
106	1477	107.5	0
106	1477	107.6	0
106	1477	107.7	0
106	1477	107.8	0
106	1477	107.9	0
106	1477	108	0
106	1477	108.1	0
106	1477	108.2	0
106	1477	108.3	0
106	1477	108.4	0
106	1477	108.5	0
106	1477	108.6	0
106	1477	108.7	0
106	1477	108.8	0
106	1477	108.9	0
106	1477	109	0
106	1477	109.1	0
106	1477	109.2	0
106	1477	109.3	0
106	1477	109.4	0
106	1477	109.5	0
106	1477	109.6	0
106	1477	109.7	0
106	1477	109.8	0
106	1477	109.9	0
106	1477	110	0
106	1477	110.1	0
106	1477	110.2	0
106	1477	110.3	0
106	1477	110.4	0
106	1477	110.5	0
106	1477	110.6	0
106	1477	110.7	0
106	1477	110.8	0
106	1477	110.9	0
106	1477	111	0
106	1477	111.1	0
106	1477	111.2	0
106	1477	111.3	0
106	1477	111.4	0
106	1477	111.5	0
106	1477	111.6	0
106	1477	111.7	0
106	1477	111.8	0
106	1477	111.9	0
106	1477	112	0
106	1477	112.1	0
106	1477	112.2	0
106	1477	112.3	0
106	1477	112.4	0
106	1477	112.5	0
106	1477	112.6	0
106	1477	112.7	0
106	1477	112.8	0
106	1477	112.9	0
106	1477	113	0
106	1477	113.1	0
106	1477	113.2	0
106	1477	113.3	0
106	1477	113.4	0
106	1477	113.5	0
106	1477	113.6	0
106	1477	113.7	0
106	1477	113.8	0
106	1477	113.9	0
106	1477	114	0
106	1477	114.1	0
106	1477	114.2	0
106	1477	114.3	0
106	1477	114.4	0
106	1477	114.5	0
106	1477	114.6	0
106	1477	114.7	0
106	1477	114.8	0
106	1477	114.9	0
106	1477	115	0
106	1477	115.1	0
106	1477	115.2	0
106	1477	115.3	0
106	1477	115.4	0
106	1477	115.5	0
106	1477	115.6	0
106	1477	115.7	0
106	1477	115.8	0
106	1477	115.9	0
106	1477	116	0
106	1477	116.1	0
106	1477	116.2	0
106	1477	116.3	0
106	1477	116.4	0
106	1477	116.5	0
106	1477	116.6	0
106	1477	116.7	0
106	1477	116.8	0
106	1477	116.9	0
106	1477	117	0
106	1477	117.1	0
106	1477	117.2	0
106	1477	117.3	0
106	1477	117.4	0
106	1477	117.5	0
106	1477	117.6	0
106	1477	117.7	0
106	1477	117.8	0
106	1477	117.9	0
106	1477	118	0
106	1477	118.1	0
106	1477	118.2	0
106	1477	118.3	0
106	1477	118.4	0
106	1477	118.5	0
106	1477	118.6	0
106	1477	118.7	0
106	1477	118.8	0
106	1477	118.9	0
106	1477	119	0
106	1477	119.1	0
106	1477	119.2	0
106	1477	119.3	0
106	1477	119.4	0
106	1477	119.5	0
106	1477	119.6	0
106	1477	119.7	0
106	1477	119.8	0
106	1477	119.9	0
106	1477	120	0
105	891	80.000152607455	100
105	899	80.000152607455	100
105	921	80.000375607686	100
105	1001	80.000887822596	100
105	1035	80.001123822639	100
105	1069	80.001360055651	100
107	891	80.000152607455	100

